LTspice 24.0.9 for Windows
Circuit: * C:\Users\Default.DESKTOP-441OQML\Desktop\modulator\modulator.asc
Start Time: Sun Feb 25 17:13:50 2024
Warning: Multiple definitions of model "2scr375p" Type: BJT
Warning: Multiple definitions of model "bc857b" Type: BJT
Warning: Multiple definitions of model "bc847c" Type: BJT
Warning: Multiple definitions of model "bc847b" Type: BJT
solver = Normal
Maximum thread count: 2
tnom = 27
temp = 27
method = modified trap
WARNING: Node N008 is floating.
WARNING: Node N026 is floating.

Direct Newton iteration failed to find .op point.  (Use ".option noopiter" to skip.)
Starting Gmin stepping
Gmin = 10
Gmin = 1.07374
Gmin = 0.115292
Gmin = 0.0123794
Gmin = 0.00132923
Gmin = 0.000142725
Gmin = 1.5325e-05
Gmin = 1.6455e-06
Gmin = 1.76685e-07
Gmin = 1.89714e-08
Gmin = 2.03704e-09
Gmin = 2.18725e-10
Gmin = 2.34854e-11
Gmin = 2.52173e-12
Gmin = 2.70769e-13
Gmin = 0
Gmin stepping succeeded in finding the operating point.

Heightened Def Con from 0.0103378 to 0.0103378
Heightened Def Con from 0.0103597 to 0.0103597
Heightened Def Con from 0.0103713 to 0.0103714
Heightened Def Con from 0.0103833 to 0.0103833
Heightened Def Con from 0.0103912 to 0.0103912
Heightened Def Con from 0.0104028 to 0.0104028
Heightened Def Con from 0.0104116 to 0.0104116
Heightened Def Con from 0.0104233 to 0.0104234
Heightened Def Con from 0.0104407 to 0.0104407
Heightened Def Con from 0.0104705 to 0.0104705
Heightened Def Con from 0.0105029 to 0.010503
Heightened Def Con from 0.0105387 to 0.0105387
Heightened Def Con from 0.0105669 to 0.0105669
Heightened Def Con from 0.0105792 to 0.0105792
Heightened Def Con from 0.0105939 to 0.0105939
Heightened Def Con from 0.0106096 to 0.0106096
Heightened Def Con from 0.0106226 to 0.0106226
Heightened Def Con from 0.0106226 to 0.0106226
Heightened Def Con from 0.010631 to 0.010631
Heightened Def Con from 0.0106398 to 0.0106398
Heightened Def Con from 0.0106468 to 0.0106468
Heightened Def Con from 0.0106556 to 0.0106556
Heightened Def Con from 0.0106636 to 0.0106636
Heightened Def Con from 0.0106719 to 0.0106719
Heightened Def Con from 0.0106782 to 0.0106782
Heightened Def Con from 0.0106834 to 0.0106834
Heightened Def Con from 0.0106906 to 0.0106906
Heightened Def Con from 0.0106966 to 0.0106966
Heightened Def Con from 0.0107045 to 0.0107045
Heightened Def Con from 0.0107116 to 0.0107116
Heightened Def Con from 0.0107192 to 0.0107192
Heightened Def Con from 0.010725 to 0.010725
Heightened Def Con from 0.0107301 to 0.0107301
Heightened Def Con from 0.0107377 to 0.0107377
Heightened Def Con from 0.0107451 to 0.0107451
Heightened Def Con from 0.0107515 to 0.0107515
Heightened Def Con from 0.0107569 to 0.0107569
Heightened Def Con from 0.0107625 to 0.0107625
Heightened Def Con from 0.0107687 to 0.0107687
Heightened Def Con from 0.0107761 to 0.0107762
Heightened Def Con from 0.0107836 to 0.0107836
Heightened Def Con from 0.0107883 to 0.0107883
Heightened Def Con from 0.0107933 to 0.0107933
Heightened Def Con from 0.0107982 to 0.0107983
Heightened Def Con from 0.0108024 to 0.0108024
Heightened Def Con from 0.0108024 to 0.0108024
Heightened Def Con from 0.0108024 to 0.0108024
Heightened Def Con from 0.0108024 to 0.0108024
Heightened Def Con from 0.0108062 to 0.0108062
Heightened Def Con from 0.0108062 to 0.0108062
Heightened Def Con from 0.0108062 to 0.0108062
Heightened Def Con from 0.0108062 to 0.0108062
Heightened Def Con from 0.0108062 to 0.0108062
Heightened Def Con from 0.0108062 to 0.0108062
Heightened Def Con from 0.0108062 to 0.0108062
Heightened Def Con from 0.0108062 to 0.0108062
Heightened Def Con from 0.0108093 to 0.0108093
Heightened Def Con from 0.0108093 to 0.0108093
Heightened Def Con from 0.0108093 to 0.0108093
Heightened Def Con from 0.0108093 to 0.0108093
Heightened Def Con from 0.0108093 to 0.0108093
Heightened Def Con from 0.0108093 to 0.0108093
Heightened Def Con from 0.0108132 to 0.0108132
Heightened Def Con from 0.0108132 to 0.0108132
Heightened Def Con from 0.0108132 to 0.0108132
Heightened Def Con from 0.0108132 to 0.0108132
Heightened Def Con from 0.0108168 to 0.0108168
Heightened Def Con from 0.0108222 to 0.0108222
Heightened Def Con from 0.0108222 to 0.0108222
Heightened Def Con from 0.0108255 to 0.0108255
Heightened Def Con from 0.0108282 to 0.0108282
Heightened Def Con from 0.0108327 to 0.0108327
Heightened Def Con from 0.0108327 to 0.0108327
Heightened Def Con from 0.0108355 to 0.0108355
Heightened Def Con from 0.0108355 to 0.0108355
Heightened Def Con from 0.0108393 to 0.0108393
Heightened Def Con from 0.0108393 to 0.0108393
Heightened Def Con from 0.0108393 to 0.0108393
Heightened Def Con from 0.0108393 to 0.0108393
Heightened Def Con from 0.0108393 to 0.0108393
Heightened Def Con from 0.0108393 to 0.0108393
Heightened Def Con from 0.0108419 to 0.0108419
Heightened Def Con from 0.0108419 to 0.0108419
Heightened Def Con from 0.0108442 to 0.0108442
Heightened Def Con from 0.0108442 to 0.0108442
Heightened Def Con from 0.0108468 to 0.0108468
Heightened Def Con from 0.0108468 to 0.0108468
Heightened Def Con from 0.0108499 to 0.0108499
Heightened Def Con from 0.0108516 to 0.0108516
Heightened Def Con from 0.0108516 to 0.0108516
Heightened Def Con from 0.0108553 to 0.0108553
Heightened Def Con from 0.0108553 to 0.0108553
Heightened Def Con from 0.0108579 to 0.0108579
Heightened Def Con from 0.0108579 to 0.0108579
Heightened Def Con from 0.010861 to 0.010861
Heightened Def Con from 0.010861 to 0.010861
Heightened Def Con from 0.0108658 to 0.0108658
Heightened Def Con from 0.010869 to 0.010869
Heightened Def Con from 0.010869 to 0.010869
Heightened Def Con from 0.0108733 to 0.0108733
Heightened Def Con from 0.0108733 to 0.0108733
Heightened Def Con from 0.0108763 to 0.0108763
Heightened Def Con from 0.0108763 to 0.0108763
Heightened Def Con from 0.0108802 to 0.0108802
Heightened Def Con from 0.0108833 to 0.0108833
Heightened Def Con from 0.0108833 to 0.0108834
Heightened Def Con from 0.0108868 to 0.0108868
Heightened Def Con from 0.0108868 to 0.0108868
Heightened Def Con from 0.0108868 to 0.0108868
Heightened Def Con from 0.0108868 to 0.0108868
Heightened Def Con from 0.0108868 to 0.0108869
Heightened Def Con from 0.0108869 to 0.0108869
Heightened Def Con from 0.0108869 to 0.0108869
Heightened Def Con from 0.0108869 to 0.0108869
Heightened Def Con from 0.0108869 to 0.0108869
Heightened Def Con from 0.0108869 to 0.0108869
Heightened Def Con from 0.0108869 to 0.0108869
Heightened Def Con from 0.0108869 to 0.0108869
Heightened Def Con from 0.0108869 to 0.0108869
Heightened Def Con from 0.0108869 to 0.0108869
Heightened Def Con from 0.0108869 to 0.0108869
Heightened Def Con from 0.0108869 to 0.0108869
Heightened Def Con from 0.0108869 to 0.0108869
Heightened Def Con from 0.0108869 to 0.0108869
Heightened Def Con from 0.0108869 to 0.0108869
Heightened Def Con from 0.0108869 to 0.0108869
Heightened Def Con from 0.0108869 to 0.0108869
Heightened Def Con from 0.0108869 to 0.0108869
Heightened Def Con from 0.0108869 to 0.0108869
Heightened Def Con from 0.0108869 to 0.0108869
Heightened Def Con from 0.0108869 to 0.0108869
Heightened Def Con from 0.0108869 to 0.0108869
Heightened Def Con from 0.0108869 to 0.0108869
Heightened Def Con from 0.0108869 to 0.0108869
Heightened Def Con from 0.0108869 to 0.0108869
Heightened Def Con from 0.0108869 to 0.0108869
Heightened Def Con from 0.0108869 to 0.0108869
Heightened Def Con from 0.0108869 to 0.0108869
Heightened Def Con from 0.0108869 to 0.0108869
Heightened Def Con from 0.0108869 to 0.0108869
Heightened Def Con from 0.0108869 to 0.0108869
Heightened Def Con from 0.0108869 to 0.0108869
Heightened Def Con from 0.0108869 to 0.0108869
Heightened Def Con from 0.0108869 to 0.0108869
Heightened Def Con from 0.0108869 to 0.0108869
Heightened Def Con from 0.0108869 to 0.0108869
Heightened Def Con from 0.0108869 to 0.0108869
Heightened Def Con from 0.0108869 to 0.0108869
Heightened Def Con from 0.0108869 to 0.0108869
Heightened Def Con from 0.0108869 to 0.0108869
Heightened Def Con from 0.0108869 to 0.0108869
Heightened Def Con from 0.0108869 to 0.0108869
Heightened Def Con from 0.0108869 to 0.0108869
Heightened Def Con from 0.0108869 to 0.0108869
Heightened Def Con from 0.0108869 to 0.0108869
Heightened Def Con from 0.0108869 to 0.0108869
Heightened Def Con from 0.0108869 to 0.0108869
Heightened Def Con from 0.0108869 to 0.0108869
Heightened Def Con from 0.0108869 to 0.0108869
Heightened Def Con from 0.0108869 to 0.0108869
Heightened Def Con from 0.0108869 to 0.0108869
Heightened Def Con from 0.0108869 to 0.0108869
Heightened Def Con from 0.0108869 to 0.0108869
Heightened Def Con from 0.0108869 to 0.0108869
Heightened Def Con from 0.0108869 to 0.0108869
Heightened Def Con from 0.0108869 to 0.0108869
Heightened Def Con from 0.0108869 to 0.0108869
Heightened Def Con from 0.0108869 to 0.0108869
Heightened Def Con from 0.0108869 to 0.0108869
Heightened Def Con from 0.0108869 to 0.0108869
Heightened Def Con from 0.0108869 to 0.0108869
Heightened Def Con from 0.0108869 to 0.0108869
Heightened Def Con from 0.0108869 to 0.0108869
Heightened Def Con from 0.0108869 to 0.0108869
Heightened Def Con from 0.0108869 to 0.0108869
Heightened Def Con from 0.0108869 to 0.0108869
Heightened Def Con from 0.0108869 to 0.0108869
Heightened Def Con from 0.0108869 to 0.0108869
Heightened Def Con from 0.0108869 to 0.0108869
Heightened Def Con from 0.0108869 to 0.0108869
Heightened Def Con from 0.0108869 to 0.0108869
Heightened Def Con from 0.0108869 to 0.0108869
Heightened Def Con from 0.0108869 to 0.0108869
Heightened Def Con from 0.0108869 to 0.0108869
Heightened Def Con from 0.0108869 to 0.0108869
Heightened Def Con from 0.0108869 to 0.0108869
Heightened Def Con from 0.0108869 to 0.0108869
Heightened Def Con from 0.0108869 to 0.0108869
Heightened Def Con from 0.0108869 to 0.0108869
Heightened Def Con from 0.0108869 to 0.0108869
Heightened Def Con from 0.0108869 to 0.0108869
Heightened Def Con from 0.0108869 to 0.0108869
Heightened Def Con from 0.0108869 to 0.0108869
Heightened Def Con from 0.010887 to 0.010887
Heightened Def Con from 0.010887 to 0.010887
Heightened Def Con from 0.010887 to 0.010887
Heightened Def Con from 0.010887 to 0.010887
Heightened Def Con from 0.010887 to 0.010887
Heightened Def Con from 0.010887 to 0.010887
Heightened Def Con from 0.010887 to 0.010887
Heightened Def Con from 0.010887 to 0.010887
Heightened Def Con from 0.010887 to 0.010887
Heightened Def Con from 0.010887 to 0.010887
Heightened Def Con from 0.010887 to 0.010887
Heightened Def Con from 0.010887 to 0.010887
Heightened Def Con from 0.010887 to 0.010887
Heightened Def Con from 0.010887 to 0.010887
Heightened Def Con from 0.010887 to 0.010887
Heightened Def Con from 0.010887 to 0.010887
Heightened Def Con from 0.010887 to 0.010887
Heightened Def Con from 0.010887 to 0.010887
Heightened Def Con from 0.010887 to 0.010887
Heightened Def Con from 0.010887 to 0.010887
Heightened Def Con from 0.010887 to 0.010887
Heightened Def Con from 0.010887 to 0.010887
Heightened Def Con from 0.010887 to 0.010887
Heightened Def Con from 0.010887 to 0.010887
Heightened Def Con from 0.010887 to 0.010887
Heightened Def Con from 0.010887 to 0.010887
Heightened Def Con from 0.010887 to 0.010887
Heightened Def Con from 0.010887 to 0.010887
Heightened Def Con from 0.010887 to 0.010887
Heightened Def Con from 0.010887 to 0.010887
Heightened Def Con from 0.010887 to 0.010887
Heightened Def Con from 0.010887 to 0.010887
Heightened Def Con from 0.010887 to 0.010887
Heightened Def Con from 0.010887 to 0.010887
Heightened Def Con from 0.010887 to 0.010887
Heightened Def Con from 0.010887 to 0.010887
Heightened Def Con from 0.010887 to 0.010887
Heightened Def Con from 0.010887 to 0.010887
Heightened Def Con from 0.010887 to 0.010887
Heightened Def Con from 0.010887 to 0.010887
Heightened Def Con from 0.0108909 to 0.0108909
Heightened Def Con from 0.0108949 to 0.0108949
Heightened Def Con from 0.0109007 to 0.0109007
Heightened Def Con from 0.0109052 to 0.0109052
Heightened Def Con from 0.0109095 to 0.0109095
Heightened Def Con from 0.0109133 to 0.0109133
Heightened Def Con from 0.0109177 to 0.0109177
Heightened Def Con from 0.0109218 to 0.0109218
Heightened Def Con from 0.0109281 to 0.0109281
Heightened Def Con from 0.0109329 to 0.0109329
Heightened Def Con from 0.010939 to 0.010939
Heightened Def Con from 0.0109427 to 0.0109428
Heightened Def Con from 0.0109472 to 0.0109472
Heightened Def Con from 0.0109522 to 0.0109522
Heightened Def Con from 0.0109573 to 0.0109573
Heightened Def Con from 0.0109623 to 0.0109623
Heightened Def Con from 0.0109668 to 0.0109668
Heightened Def Con from 0.0109718 to 0.0109718
Heightened Def Con from 0.0109773 to 0.0109773
Heightened Def Con from 0.0109829 to 0.0109829
Heightened Def Con from 0.0109829 to 0.0109829
Heightened Def Con from 0.0109879 to 0.0109879
Heightened Def Con from 0.0109879 to 0.0109879
Heightened Def Con from 0.0109919 to 0.0109919
Heightened Def Con from 0.0109959 to 0.0109959
Heightened Def Con from 0.0109959 to 0.0109959
Heightened Def Con from 0.0109995 to 0.0109995
Heightened Def Con from 0.0110029 to 0.0110029
Heightened Def Con from 0.0110065 to 0.0110065
Heightened Def Con from 0.0110095 to 0.0110095
Heightened Def Con from 0.0110135 to 0.0110135
Heightened Def Con from 0.011019 to 0.011019
Heightened Def Con from 0.011022 to 0.011022
Heightened Def Con from 0.0110266 to 0.0110266
Heightened Def Con from 0.0110296 to 0.0110296
Heightened Def Con from 0.0110326 to 0.0110326
Heightened Def Con from 0.011035 to 0.011035
Heightened Def Con from 0.0110386 to 0.0110386
Heightened Def Con from 0.0110426 to 0.0110426
Heightened Def Con from 0.0110466 to 0.0110466
Heightened Def Con from 0.011049 to 0.011049
Heightened Def Con from 0.011049 to 0.011049
Heightened Def Con from 0.011052 to 0.011052
Heightened Def Con from 0.0110556 to 0.0110556
Heightened Def Con from 0.011059 to 0.011059
Heightened Def Con from 0.0110626 to 0.0110626
Heightened Def Con from 0.0110666 to 0.0110666
Heightened Def Con from 0.0110699 to 0.0110699
Heightened Def Con from 0.0110739 to 0.0110739
Heightened Def Con from 0.0110739 to 0.0110739
Heightened Def Con from 0.0110777 to 0.0110777
Heightened Def Con from 0.0110819 to 0.0110819
Heightened Def Con from 0.0110819 to 0.0110819
Heightened Def Con from 0.0110876 to 0.0110876
Heightened Def Con from 0.0110909 to 0.0110909
Heightened Def Con from 0.0110956 to 0.0110956
Heightened Def Con from 0.0110996 to 0.0110996
Heightened Def Con from 0.0111046 to 0.0111046
Heightened Def Con from 0.0111086 to 0.0111086
Heightened Def Con from 0.0111136 to 0.0111137
Heightened Def Con from 0.0111186 to 0.0111186
Heightened Def Con from 0.0111228 to 0.0111228
Heightened Def Con from 0.0111276 to 0.0111276
Heightened Def Con from 0.0111315 to 0.0111315
Heightened Def Con from 0.0111347 to 0.0111347
Heightened Def Con from 0.0111347 to 0.0111347
Heightened Def Con from 0.0111385 to 0.0111385
Heightened Def Con from 0.0111425 to 0.0111425
Heightened Def Con from 0.0111465 to 0.0111465
Heightened Def Con from 0.0111505 to 0.0111505
Heightened Def Con from 0.0111536 to 0.0111536
Heightened Def Con from 0.0111574 to 0.0111574
Heightened Def Con from 0.0111605 to 0.0111605
Heightened Def Con from 0.0111644 to 0.0111644
Heightened Def Con from 0.0111675 to 0.0111675
Heightened Def Con from 0.0111714 to 0.0111714
Heightened Def Con from 0.0111743 to 0.0111743
Heightened Def Con from 0.0111784 to 0.0111784
Heightened Def Con from 0.0111813 to 0.0111813
Heightened Def Con from 0.0111843 to 0.0111843
Heightened Def Con from 0.0111883 to 0.0111883
Heightened Def Con from 0.0111912 to 0.0111912
Heightened Def Con from 0.0111941 to 0.0111942
Heightened Def Con from 0.0111972 to 0.0111972
Heightened Def Con from 0.0112002 to 0.0112002
Heightened Def Con from 0.0112031 to 0.0112031
Heightened Def Con from 0.0112071 to 0.0112071
Heightened Def Con from 0.0112101 to 0.0112101
Heightened Def Con from 0.011214 to 0.011214
Heightened Def Con from 0.011219 to 0.011219
Heightened Def Con from 0.011224 to 0.011224
Heightened Def Con from 0.0112269 to 0.011227
Heightened Def Con from 0.0112299 to 0.0112299
Heightened Def Con from 0.0112329 to 0.0112329
Heightened Def Con from 0.0112358 to 0.0112358
Heightened Def Con from 0.0112388 to 0.0112388
Heightened Def Con from 0.0112428 to 0.0112428
Heightened Def Con from 0.0112457 to 0.0112457
Heightened Def Con from 0.0112486 to 0.0112487
Heightened Def Con from 0.0112516 to 0.0112516
Heightened Def Con from 0.0112546 to 0.0112546
Heightened Def Con from 0.0112585 to 0.0112585
Heightened Def Con from 0.0112634 to 0.0112634
Heightened Def Con from 0.0112664 to 0.0112664
Heightened Def Con from 0.0112703 to 0.0112703
Heightened Def Con from 0.0112733 to 0.0112733
Heightened Def Con from 0.0112762 to 0.0112762
Heightened Def Con from 0.0112792 to 0.0112792
Heightened Def Con from 0.0112821 to 0.0112821
Heightened Def Con from 0.0112871 to 0.0112871
Heightened Def Con from 0.01129 to 0.01129
Heightened Def Con from 0.0112932 to 0.0112932
Heightened Def Con from 0.0112962 to 0.0112962
Heightened Def Con from 0.0112989 to 0.0112989
Heightened Def Con from 0.011302 to 0.011302
Heightened Def Con from 0.0113057 to 0.0113057
Heightened Def Con from 0.0113097 to 0.0113097
Heightened Def Con from 0.0113129 to 0.0113129
Heightened Def Con from 0.0113176 to 0.0113176
Heightened Def Con from 0.0113208 to 0.0113208
Heightened Def Con from 0.0113254 to 0.0113254
Heightened Def Con from 0.0113286 to 0.0113286
Heightened Def Con from 0.0113319 to 0.0113319
Heightened Def Con from 0.0113365 to 0.0113365
Heightened Def Con from 0.0113401 to 0.0113401
Heightened Def Con from 0.0113432 to 0.0113432
Heightened Def Con from 0.0113473 to 0.0113473
Heightened Def Con from 0.0113518 to 0.0113519
Heightened Def Con from 0.0113562 to 0.0113562
Heightened Def Con from 0.0113617 to 0.0113617
Heightened Def Con from 0.011365 to 0.011365
Heightened Def Con from 0.0113689 to 0.0113689
Heightened Def Con from 0.0113738 to 0.0113738
Heightened Def Con from 0.0113786 to 0.0113786
Heightened Def Con from 0.0113827 to 0.0113827
Heightened Def Con from 0.0113827 to 0.0113827
Heightened Def Con from 0.0113875 to 0.0113875
Heightened Def Con from 0.0113875 to 0.0113875
Heightened Def Con from 0.0113875 to 0.0113875
Heightened Def Con from 0.0113913 to 0.0113913
Heightened Def Con from 0.0113913 to 0.0113913
Heightened Def Con from 0.0113944 to 0.0113944
Heightened Def Con from 0.0113944 to 0.0113944
Heightened Def Con from 0.0113944 to 0.0113944
Heightened Def Con from 0.0113973 to 0.0113973
Heightened Def Con from 0.0113973 to 0.0113973
Heightened Def Con from 0.0113973 to 0.0113973
Heightened Def Con from 0.0114008 to 0.0114008
Heightened Def Con from 0.0114008 to 0.0114008
Heightened Def Con from 0.0114032 to 0.0114032
Heightened Def Con from 0.0114057 to 0.0114057
Heightened Def Con from 0.0114057 to 0.0114057
Heightened Def Con from 0.0114057 to 0.0114057
Heightened Def Con from 0.0114057 to 0.0114057
Heightened Def Con from 0.0114057 to 0.0114057
Heightened Def Con from 0.0114116 to 0.0114116
Heightened Def Con from 0.0114116 to 0.0114116
Heightened Def Con from 0.0114144 to 0.0114144
Heightened Def Con from 0.0114144 to 0.0114144
Heightened Def Con from 0.0114177 to 0.0114177
Heightened Def Con from 0.0114177 to 0.0114177
Heightened Def Con from 0.0114177 to 0.0114177
Heightened Def Con from 0.0114238 to 0.0114238
Heightened Def Con from 0.0114238 to 0.0114238
Heightened Def Con from 0.01143 to 0.01143
Heightened Def Con from 0.0114341 to 0.0114341
Heightened Def Con from 0.0114413 to 0.0114413
Heightened Def Con from 0.0114669 to 0.0114669
Heightened Def Con from 0.0127435 to 0.0127435
Heightened Def Con from 0.0128276 to 0.0128276
Heightened Def Con from 0.0128697 to 0.0128697
Heightened Def Con from 0.0128697 to 0.0128697
Heightened Def Con from 0.0129137 to 0.0129137
Heightened Def Con from 0.0129137 to 0.0129137
Heightened Def Con from 0.0129592 to 0.0129592
Heightened Def Con from 0.0129767 to 0.0129767
Heightened Def Con from 0.0129963 to 0.0129963
Heightened Def Con from 0.013009 to 0.013009
Heightened Def Con from 0.0130197 to 0.0130197
Heightened Def Con from 0.013027 to 0.013027
Heightened Def Con from 0.0130325 to 0.0130325
Heightened Def Con from 0.0130394 to 0.0130394
Heightened Def Con from 0.0130464 to 0.0130464
Heightened Def Con from 0.0130532 to 0.0130532
Heightened Def Con from 0.0130599 to 0.0130599
Heightened Def Con from 0.0130666 to 0.0130666
Heightened Def Con from 0.0130729 to 0.0130729
Heightened Def Con from 0.0130803 to 0.0130803
Heightened Def Con from 0.0130903 to 0.0130903
Heightened Def Con from 0.0130975 to 0.0130975
Heightened Def Con from 0.0131058 to 0.0131058
Heightened Def Con from 0.0131125 to 0.0131125
Heightened Def Con from 0.0131193 to 0.0131194
Heightened Def Con from 0.0131262 to 0.0131262
Heightened Def Con from 0.0131332 to 0.0131332
Heightened Def Con from 0.0131332 to 0.0131332
Heightened Def Con from 0.0131332 to 0.0131332
Heightened Def Con from 0.0131371 to 0.0131371
Heightened Def Con from 0.0131371 to 0.0131371
Heightened Def Con from 0.0131371 to 0.0131371
Heightened Def Con from 0.0131371 to 0.0131371
Heightened Def Con from 0.0131371 to 0.0131371
Heightened Def Con from 0.0131371 to 0.0131371
Heightened Def Con from 0.0131439 to 0.0131439
Heightened Def Con from 0.0131471 to 0.0131471
Heightened Def Con from 0.0131471 to 0.0131471
Heightened Def Con from 0.0131514 to 0.0131514
Heightened Def Con from 0.0131548 to 0.0131548
Heightened Def Con from 0.013158 to 0.013158
Heightened Def Con from 0.013163 to 0.013163
Heightened Def Con from 0.013163 to 0.013163
Heightened Def Con from 0.0131677 to 0.0131677
Heightened Def Con from 0.0131677 to 0.0131678
Heightened Def Con from 0.0131707 to 0.0131707
Heightened Def Con from 0.0131737 to 0.0131737
Heightened Def Con from 0.0131737 to 0.0131737
Heightened Def Con from 0.0131767 to 0.0131767
Heightened Def Con from 0.0131767 to 0.0131767
Heightened Def Con from 0.0131767 to 0.0131767
Heightened Def Con from 0.0131797 to 0.0131797
Heightened Def Con from 0.0131797 to 0.0131797
Heightened Def Con from 0.0131797 to 0.0131797
Heightened Def Con from 0.013183 to 0.013183
Heightened Def Con from 0.0131864 to 0.0131864
Heightened Def Con from 0.0131887 to 0.0131887
Heightened Def Con from 0.0131932 to 0.0131932
Heightened Def Con from 0.0131932 to 0.0131932
Heightened Def Con from 0.0131961 to 0.0131961
Heightened Def Con from 0.0132007 to 0.0132007
Heightened Def Con from 0.0132007 to 0.0132007
Heightened Def Con from 0.0132034 to 0.0132034
Heightened Def Con from 0.0132034 to 0.0132034
Heightened Def Con from 0.0132059 to 0.0132059
Heightened Def Con from 0.0132059 to 0.0132059
Heightened Def Con from 0.013209 to 0.013209
Heightened Def Con from 0.0132116 to 0.0132116
Heightened Def Con from 0.0132116 to 0.0132116
Heightened Def Con from 0.0132146 to 0.0132146
Heightened Def Con from 0.0132146 to 0.0132146
Heightened Def Con from 0.0132146 to 0.0132146
Heightened Def Con from 0.0132146 to 0.0132146
Heightened Def Con from 0.0132146 to 0.0132146
Heightened Def Con from 0.013218 to 0.013218
Heightened Def Con from 0.0132219 to 0.0132219
Heightened Def Con from 0.0132286 to 0.0132286
Heightened Def Con from 0.0132326 to 0.0132326
Heightened Def Con from 0.0132378 to 0.0132378
Heightened Def Con from 0.0132378 to 0.0132379
Heightened Def Con from 0.0132459 to 0.0132459
Heightened Def Con from 0.0132507 to 0.0132507
Heightened Def Con from 0.0132557 to 0.0132557
Heightened Def Con from 0.0132603 to 0.0132603
Heightened Def Con from 0.0132647 to 0.0132648
Heightened Def Con from 0.0132696 to 0.0132696
Heightened Def Con from 0.0132748 to 0.0132748
Heightened Def Con from 0.0132788 to 0.0132788
Heightened Def Con from 0.0132839 to 0.0132839
Heightened Def Con from 0.0132889 to 0.0132889
Heightened Def Con from 0.0132929 to 0.0132929
Heightened Def Con from 0.0132987 to 0.0132987
Heightened Def Con from 0.0133055 to 0.0133055
Heightened Def Con from 0.0133105 to 0.0133105
Heightened Def Con from 0.0133145 to 0.0133145
Heightened Def Con from 0.0133185 to 0.0133185
Heightened Def Con from 0.0133234 to 0.0133234
Heightened Def Con from 0.0133276 to 0.0133276
Heightened Def Con from 0.0133321 to 0.0133321
Heightened Def Con from 0.0133356 to 0.0133357
Heightened Def Con from 0.0133406 to 0.0133406
Heightened Def Con from 0.0133406 to 0.0133406
Heightened Def Con from 0.0133446 to 0.0133446
Heightened Def Con from 0.0133482 to 0.0133482
Heightened Def Con from 0.0133512 to 0.0133512
Heightened Def Con from 0.0133557 to 0.0133557
Heightened Def Con from 0.0133602 to 0.0133602
Heightened Def Con from 0.0133647 to 0.0133647
Heightened Def Con from 0.0133647 to 0.0133647
Heightened Def Con from 0.0133698 to 0.0133698
Heightened Def Con from 0.0133743 to 0.0133743
Heightened Def Con from 0.0133773 to 0.0133773
Heightened Def Con from 0.0133773 to 0.0133773
Heightened Def Con from 0.0133823 to 0.0133824
Heightened Def Con from 0.0133824 to 0.0133824
Heightened Def Con from 0.0133824 to 0.0133824
Heightened Def Con from 0.0133861 to 0.0133861
Heightened Def Con from 0.0133893 to 0.0133893
Heightened Def Con from 0.0133893 to 0.0133893
Heightened Def Con from 0.0133933 to 0.0133933
Heightened Def Con from 0.0133933 to 0.0133933
Heightened Def Con from 0.0133964 to 0.0133964
Heightened Def Con from 0.0133998 to 0.0133998
Heightened Def Con from 0.0134037 to 0.0134038
Heightened Def Con from 0.0134074 to 0.0134074
Heightened Def Con from 0.0134104 to 0.0134104
Heightened Def Con from 0.0134134 to 0.0134134
Heightened Def Con from 0.0134167 to 0.0134167
Heightened Def Con from 0.0134204 to 0.0134204
Heightened Def Con from 0.0134237 to 0.0134237
Heightened Def Con from 0.0134267 to 0.0134267
Heightened Def Con from 0.0134307 to 0.0134307
Heightened Def Con from 0.0134335 to 0.0134335
Heightened Def Con from 0.0134367 to 0.0134367
Heightened Def Con from 0.0134404 to 0.0134404
Heightened Def Con from 0.0134404 to 0.0134404
Heightened Def Con from 0.0134437 to 0.0134437
Heightened Def Con from 0.0134487 to 0.0134487
Heightened Def Con from 0.0134525 to 0.0134525
Heightened Def Con from 0.0134525 to 0.0134525
Heightened Def Con from 0.0134576 to 0.0134577
Heightened Def Con from 0.0134614 to 0.0134614
Heightened Def Con from 0.0134654 to 0.0134654
Heightened Def Con from 0.0134694 to 0.0134694
Heightened Def Con from 0.0134734 to 0.0134734
Heightened Def Con from 0.0134784 to 0.0134784
Heightened Def Con from 0.0134843 to 0.0134844
Heightened Def Con from 0.0134895 to 0.0134895
Heightened Def Con from 0.0134895 to 0.0134896
Heightened Def Con from 0.0134943 to 0.0134943
Heightened Def Con from 0.0134983 to 0.0134983
Heightened Def Con from 0.0135025 to 0.0135025
Heightened Def Con from 0.0135065 to 0.0135065
Heightened Def Con from 0.0135112 to 0.0135112
Heightened Def Con from 0.0135144 to 0.0135144
Heightened Def Con from 0.0135184 to 0.0135184
Heightened Def Con from 0.0135214 to 0.0135214
Heightened Def Con from 0.0135252 to 0.0135252
Heightened Def Con from 0.0135291 to 0.0135291
Heightened Def Con from 0.0135321 to 0.0135321
Heightened Def Con from 0.0135353 to 0.0135353
Heightened Def Con from 0.0135381 to 0.0135381
Heightened Def Con from 0.013541 to 0.013541
Heightened Def Con from 0.0135442 to 0.0135442
Heightened Def Con from 0.013547 to 0.013547
Heightened Def Con from 0.0135491 to 0.0135492
Heightened Def Con from 0.0135519 to 0.0135519
Heightened Def Con from 0.0135541 to 0.0135541
Heightened Def Con from 0.0135569 to 0.0135569
Heightened Def Con from 0.0135599 to 0.0135599
Heightened Def Con from 0.0135639 to 0.0135639
Heightened Def Con from 0.0135688 to 0.0135688
Heightened Def Con from 0.0135718 to 0.0135718
Heightened Def Con from 0.0135747 to 0.0135747
Heightened Def Con from 0.0135777 to 0.0135777
Heightened Def Con from 0.0135798 to 0.0135798
Heightened Def Con from 0.0135826 to 0.0135826
Heightened Def Con from 0.0135855 to 0.0135855
Heightened Def Con from 0.0135896 to 0.0135896
Heightened Def Con from 0.0135926 to 0.0135926
Heightened Def Con from 0.0135955 to 0.0135955
Heightened Def Con from 0.0135983 to 0.0135983
Heightened Def Con from 0.0136024 to 0.0136024
Heightened Def Con from 0.0136054 to 0.0136054
Heightened Def Con from 0.0136094 to 0.0136094
Heightened Def Con from 0.0136123 to 0.0136123
Heightened Def Con from 0.0136153 to 0.0136153
Heightened Def Con from 0.0136182 to 0.0136182
Heightened Def Con from 0.0136212 to 0.0136212
Heightened Def Con from 0.0136242 to 0.0136242
Heightened Def Con from 0.0136272 to 0.0136272
Heightened Def Con from 0.0136301 to 0.0136301
Heightened Def Con from 0.0136331 to 0.0136331
Heightened Def Con from 0.013636 to 0.013636
Heightened Def Con from 0.013639 to 0.013639
Heightened Def Con from 0.013642 to 0.013642
Heightened Def Con from 0.0136449 to 0.0136449
Heightened Def Con from 0.0136489 to 0.0136489
Heightened Def Con from 0.0136528 to 0.0136528
Heightened Def Con from 0.0136587 to 0.0136587
Heightened Def Con from 0.0136636 to 0.0136636
Heightened Def Con from 0.0136696 to 0.0136696
Heightened Def Con from 0.0136765 to 0.0136765
Heightened Def Con from 0.0136805 to 0.0136805
Heightened Def Con from 0.0136844 to 0.0136844
Heightened Def Con from 0.0136875 to 0.0136875
Heightened Def Con from 0.0136923 to 0.0136923
Heightened Def Con from 0.0136923 to 0.0136923
Heightened Def Con from 0.0136952 to 0.0136952
Heightened Def Con from 0.0136982 to 0.0136982
Heightened Def Con from 0.0137011 to 0.0137012
Heightened Def Con from 0.013704 to 0.0137041
Heightened Def Con from 0.0137062 to 0.0137062
Heightened Def Con from 0.0137099 to 0.0137099
Heightened Def Con from 0.0137119 to 0.013712
Heightened Def Con from 0.013712 to 0.013712
Heightened Def Con from 0.013712 to 0.013712
Heightened Def Con from 0.013712 to 0.013712
Heightened Def Con from 0.0137149 to 0.0137149
Heightened Def Con from 0.0137149 to 0.0137149
Heightened Def Con from 0.0137149 to 0.0137149
Heightened Def Con from 0.0137169 to 0.0137169
Heightened Def Con from 0.0137169 to 0.0137169
Heightened Def Con from 0.0137169 to 0.0137169
Heightened Def Con from 0.0137169 to 0.0137169
Heightened Def Con from 0.0137169 to 0.0137169
Heightened Def Con from 0.0137169 to 0.0137169
Heightened Def Con from 0.0137169 to 0.0137169
Heightened Def Con from 0.0137169 to 0.0137169
Heightened Def Con from 0.0137169 to 0.0137169
Heightened Def Con from 0.0137169 to 0.0137169
Heightened Def Con from 0.0137169 to 0.0137169
Heightened Def Con from 0.0137198 to 0.0137198
Heightened Def Con from 0.0137198 to 0.0137198
Heightened Def Con from 0.0137198 to 0.0137198
Heightened Def Con from 0.0137198 to 0.0137198
Heightened Def Con from 0.0137226 to 0.0137226
Heightened Def Con from 0.0137226 to 0.0137226
Heightened Def Con from 0.0137247 to 0.0137247
Heightened Def Con from 0.0137247 to 0.0137247
Heightened Def Con from 0.0137247 to 0.0137247
Heightened Def Con from 0.0137267 to 0.0137267
Heightened Def Con from 0.0137289 to 0.0137289
Heightened Def Con from 0.0137289 to 0.0137289
Heightened Def Con from 0.0137315 to 0.0137315
Heightened Def Con from 0.0137315 to 0.0137315
Heightened Def Con from 0.0137315 to 0.0137315
Heightened Def Con from 0.0137337 to 0.0137337
Heightened Def Con from 0.0137337 to 0.0137337
Heightened Def Con from 0.0137337 to 0.0137337
Heightened Def Con from 0.0137337 to 0.0137337
Heightened Def Con from 0.0137337 to 0.0137337
Heightened Def Con from 0.0137337 to 0.0137337
Heightened Def Con from 0.0137337 to 0.0137337
Heightened Def Con from 0.0137337 to 0.0137337
Heightened Def Con from 0.0137337 to 0.0137337
Heightened Def Con from 0.0137364 to 0.0137364
Heightened Def Con from 0.0137364 to 0.0137364
Heightened Def Con from 0.0137384 to 0.0137384
Heightened Def Con from 0.0137384 to 0.0137384
Heightened Def Con from 0.0137384 to 0.0137384
Heightened Def Con from 0.0137384 to 0.0137384
Heightened Def Con from 0.0137384 to 0.0137384
Heightened Def Con from 0.0137384 to 0.0137384
Heightened Def Con from 0.0137384 to 0.0137384
Heightened Def Con from 0.0137407 to 0.0137407
Heightened Def Con from 0.0137407 to 0.0137407
Heightened Def Con from 0.0137461 to 0.0137461
Heightened Def Con from 0.0137461 to 0.0137461
Heightened Def Con from 0.0137492 to 0.0137492
Heightened Def Con from 0.0137492 to 0.0137492
Heightened Def Con from 0.0137492 to 0.0137492
Heightened Def Con from 0.0137528 to 0.0137528
Heightened Def Con from 0.0137528 to 0.0137528
Heightened Def Con from 0.0137552 to 0.0137552
Heightened Def Con from 0.0137552 to 0.0137552
Heightened Def Con from 0.013758 to 0.013758
Heightened Def Con from 0.0137601 to 0.0137601
Heightened Def Con from 0.0137619 to 0.0137619
Heightened Def Con from 0.0137619 to 0.0137619
Heightened Def Con from 0.0137649 to 0.0137649
Heightened Def Con from 0.0137649 to 0.0137649
Heightened Def Con from 0.0137678 to 0.0137678
Heightened Def Con from 0.0137678 to 0.0137678
Heightened Def Con from 0.0137707 to 0.0137707
Heightened Def Con from 0.0137756 to 0.0137756
Heightened Def Con from 0.0137756 to 0.0137756
Heightened Def Con from 0.0137854 to 0.0137854
Heightened Def Con from 0.0137951 to 0.0137951
Heightened Def Con from 0.0137951 to 0.0137951
Heightened Def Con from 0.0138019 to 0.0138019
Heightened Def Con from 0.0138019 to 0.0138019
Heightened Def Con from 0.013811 to 0.013811
Heightened Def Con from 0.0138442 to 0.0138442
Heightened Def Con from 0.0149778 to 0.0149778
Heightened Def Con from 0.0150167 to 0.0150168
Heightened Def Con from 0.015024 to 0.015024
Heightened Def Con from 0.0150299 to 0.0150299
Heightened Def Con from 0.0150356 to 0.0150356
Heightened Def Con from 0.0150406 to 0.0150406
Heightened Def Con from 0.0150466 to 0.0150466
Heightened Def Con from 0.0150525 to 0.0150525
Heightened Def Con from 0.0150584 to 0.0150584
Heightened Def Con from 0.0150644 to 0.0150644
Heightened Def Con from 0.0150744 to 0.0150744
Heightened Def Con from 0.0150848 to 0.0150848
Heightened Def Con from 0.0151057 to 0.0151057
Heightened Def Con from 0.0151324 to 0.0151324
Heightened Def Con from 0.0151618 to 0.0151618
Heightened Def Con from 0.0152138 to 0.0152138
Heightened Def Con from 0.0152555 to 0.0152555
Heightened Def Con from 0.0152555 to 0.0152555
Heightened Def Con from 0.0152946 to 0.0152946
Heightened Def Con from 0.0153112 to 0.0153112
Heightened Def Con from 0.0153249 to 0.0153249
Heightened Def Con from 0.0153454 to 0.0153454
Heightened Def Con from 0.0153729 to 0.0153729
Heightened Def Con from 0.0153809 to 0.0153809
Heightened Def Con from 0.0153904 to 0.0153904
Heightened Def Con from 0.0153977 to 0.0153977
Heightened Def Con from 0.0154095 to 0.0154095
Heightened Def Con from 0.0154174 to 0.0154174
Heightened Def Con from 0.0154255 to 0.0154255
Heightened Def Con from 0.0154305 to 0.0154305
Heightened Def Con from 0.0154372 to 0.0154372
Heightened Def Con from 0.0154449 to 0.0154449
Heightened Def Con from 0.0154449 to 0.0154449
Heightened Def Con from 0.0154484 to 0.0154484
Heightened Def Con from 0.0154539 to 0.0154539
Heightened Def Con from 0.015459 to 0.015459
Heightened Def Con from 0.015459 to 0.015459
Heightened Def Con from 0.015459 to 0.015459
Heightened Def Con from 0.015459 to 0.015459
Heightened Def Con from 0.015459 to 0.015459
Heightened Def Con from 0.0154639 to 0.0154639
Heightened Def Con from 0.0154639 to 0.0154639
Heightened Def Con from 0.0154639 to 0.0154639
Heightened Def Con from 0.0154639 to 0.0154639
Heightened Def Con from 0.0154639 to 0.0154639
Heightened Def Con from 0.0154639 to 0.0154639
Heightened Def Con from 0.0154685 to 0.0154686
Heightened Def Con from 0.0154686 to 0.0154686
Heightened Def Con from 0.0154686 to 0.0154686
Heightened Def Con from 0.0154686 to 0.0154686
Heightened Def Con from 0.0154716 to 0.0154716
Heightened Def Con from 0.0154716 to 0.0154716
Heightened Def Con from 0.0154716 to 0.0154716
Heightened Def Con from 0.0154716 to 0.0154717
Heightened Def Con from 0.0154752 to 0.0154752
Heightened Def Con from 0.0154752 to 0.0154752
Heightened Def Con from 0.0154779 to 0.0154779
Heightened Def Con from 0.0154779 to 0.0154779
Heightened Def Con from 0.0154779 to 0.0154779
Heightened Def Con from 0.0154779 to 0.0154779
Heightened Def Con from 0.0154807 to 0.0154807
Heightened Def Con from 0.0154846 to 0.0154846
Heightened Def Con from 0.0154846 to 0.0154846
Heightened Def Con from 0.0154878 to 0.0154878
Heightened Def Con from 0.0154878 to 0.0154878
Heightened Def Con from 0.0154947 to 0.0154947
Heightened Def Con from 0.0154982 to 0.0154982
Heightened Def Con from 0.0154982 to 0.0154983
Heightened Def Con from 0.0155024 to 0.0155024
Heightened Def Con from 0.0155048 to 0.0155048
Heightened Def Con from 0.0155048 to 0.0155048
Heightened Def Con from 0.0155074 to 0.0155074
Heightened Def Con from 0.0155074 to 0.0155074
Heightened Def Con from 0.0155074 to 0.0155074
Heightened Def Con from 0.0155074 to 0.0155074
Heightened Def Con from 0.0155092 to 0.0155092
Heightened Def Con from 0.0155126 to 0.0155126
Heightened Def Con from 0.0155126 to 0.0155126
Heightened Def Con from 0.0155126 to 0.0155126
Heightened Def Con from 0.0155126 to 0.0155126
Heightened Def Con from 0.0155126 to 0.0155126
Heightened Def Con from 0.0155126 to 0.0155126
Heightened Def Con from 0.0155155 to 0.0155155
Heightened Def Con from 0.0155155 to 0.0155155
Heightened Def Con from 0.0155155 to 0.0155155
Heightened Def Con from 0.0155194 to 0.0155194
Heightened Def Con from 0.0155194 to 0.0155194
Heightened Def Con from 0.0155227 to 0.0155227
Heightened Def Con from 0.0155227 to 0.0155227
Heightened Def Con from 0.0155259 to 0.0155259
Heightened Def Con from 0.0155259 to 0.0155259
Heightened Def Con from 0.0155307 to 0.0155307
Heightened Def Con from 0.0155335 to 0.0155335
Heightened Def Con from 0.0155335 to 0.0155335
Heightened Def Con from 0.0155367 to 0.0155367
Heightened Def Con from 0.0155367 to 0.0155367
Heightened Def Con from 0.01554 to 0.01554
Heightened Def Con from 0.01554 to 0.01554
Heightened Def Con from 0.015546 to 0.015546
Heightened Def Con from 0.015546 to 0.015546
Heightened Def Con from 0.015546 to 0.015546
Heightened Def Con from 0.015546 to 0.015546
Heightened Def Con from 0.015546 to 0.015546
Heightened Def Con from 0.015546 to 0.015546
Heightened Def Con from 0.0155499 to 0.0155499
Heightened Def Con from 0.0155537 to 0.0155537
Heightened Def Con from 0.0155589 to 0.0155589
Heightened Def Con from 0.0155649 to 0.0155649
Heightened Def Con from 0.0155689 to 0.0155689
Heightened Def Con from 0.0155729 to 0.0155729
Heightened Def Con from 0.015577 to 0.015577
Heightened Def Con from 0.0155808 to 0.0155808
Heightened Def Con from 0.015585 to 0.015585
Heightened Def Con from 0.01559 to 0.01559
Heightened Def Con from 0.0155958 to 0.0155958
Heightened Def Con from 0.0155998 to 0.0155998
Heightened Def Con from 0.0156041 to 0.0156041
Heightened Def Con from 0.0156081 to 0.0156081
Heightened Def Con from 0.0156111 to 0.0156111
Heightened Def Con from 0.0156151 to 0.0156151
Heightened Def Con from 0.0156182 to 0.0156182
Heightened Def Con from 0.0156218 to 0.0156218
Heightened Def Con from 0.0156252 to 0.0156252
Heightened Def Con from 0.0156308 to 0.0156308
Heightened Def Con from 0.0156363 to 0.0156363
Heightened Def Con from 0.0156413 to 0.0156413
Heightened Def Con from 0.0156413 to 0.0156413
Heightened Def Con from 0.0156449 to 0.0156449
Heightened Def Con from 0.0156483 to 0.0156483
Heightened Def Con from 0.0156519 to 0.0156519
Heightened Def Con from 0.0156559 to 0.0156559
Heightened Def Con from 0.0156594 to 0.0156594
Heightened Def Con from 0.0156624 to 0.0156624
Heightened Def Con from 0.0156654 to 0.0156654
Heightened Def Con from 0.0156684 to 0.0156684
Heightened Def Con from 0.0156714 to 0.0156714
Heightened Def Con from 0.015674 to 0.015674
Heightened Def Con from 0.0156764 to 0.0156764
Heightened Def Con from 0.015679 to 0.0156791
Heightened Def Con from 0.0156821 to 0.0156821
Heightened Def Con from 0.0156844 to 0.0156844
Heightened Def Con from 0.0156884 to 0.0156884
Heightened Def Con from 0.0156925 to 0.0156925
Heightened Def Con from 0.0156965 to 0.0156965
Heightened Def Con from 0.0156995 to 0.0156995
Heightened Def Con from 0.0157045 to 0.0157045
Heightened Def Con from 0.0157092 to 0.0157092
Heightened Def Con from 0.0157132 to 0.0157132
Heightened Def Con from 0.0157143 to 0.0157143
Heightened Def Con from 0.0157203 to 0.0157203
Heightened Def Con from 0.0157253 to 0.0157253
Heightened Def Con from 0.0157296 to 0.0157296
Heightened Def Con from 0.0157333 to 0.0157333
Heightened Def Con from 0.0157364 to 0.0157364
Heightened Def Con from 0.0157414 to 0.0157414
Heightened Def Con from 0.0157445 to 0.0157445
Heightened Def Con from 0.0157486 to 0.0157486
Heightened Def Con from 0.0157525 to 0.0157525
Heightened Def Con from 0.0157564 to 0.0157564
Heightened Def Con from 0.0157594 to 0.0157594
Heightened Def Con from 0.0157624 to 0.0157625
Heightened Def Con from 0.0157655 to 0.0157655
Heightened Def Con from 0.0157695 to 0.0157695
Heightened Def Con from 0.0157735 to 0.0157735
Heightened Def Con from 0.0157745 to 0.0157745
Heightened Def Con from 0.0157795 to 0.0157795
Heightened Def Con from 0.0157835 to 0.0157835
Heightened Def Con from 0.0157873 to 0.0157873
Heightened Def Con from 0.0157903 to 0.0157903
Heightened Def Con from 0.0157945 to 0.0157945
Heightened Def Con from 0.0157945 to 0.0157945
Heightened Def Con from 0.0157984 to 0.0157984
Heightened Def Con from 0.0157984 to 0.0157984
Heightened Def Con from 0.0157984 to 0.0157985
Heightened Def Con from 0.0158024 to 0.0158024
Heightened Def Con from 0.0158056 to 0.0158056
Heightened Def Con from 0.0158104 to 0.0158104
Heightened Def Con from 0.0158126 to 0.0158126
Heightened Def Con from 0.0158165 to 0.0158166
Heightened Def Con from 0.0158213 to 0.0158213
Heightened Def Con from 0.0158266 to 0.0158266
Heightened Def Con from 0.0158266 to 0.0158266
Heightened Def Con from 0.0158313 to 0.0158313
Heightened Def Con from 0.0158356 to 0.0158356
Heightened Def Con from 0.0158396 to 0.0158396
Heightened Def Con from 0.0158426 to 0.0158426
Heightened Def Con from 0.0158476 to 0.0158476
Heightened Def Con from 0.0158515 to 0.0158516
Heightened Def Con from 0.0158551 to 0.0158551
Heightened Def Con from 0.0158591 to 0.0158591
Heightened Def Con from 0.0158621 to 0.0158621
Heightened Def Con from 0.0158621 to 0.0158621
Heightened Def Con from 0.0158661 to 0.0158661
Heightened Def Con from 0.01587 to 0.01587
Heightened Def Con from 0.01587 to 0.01587
Heightened Def Con from 0.01587 to 0.01587
Heightened Def Con from 0.0158755 to 0.0158755
Heightened Def Con from 0.0158755 to 0.0158755
Heightened Def Con from 0.0158789 to 0.0158789
Heightened Def Con from 0.0158835 to 0.0158835
Heightened Def Con from 0.0158888 to 0.0158888
Heightened Def Con from 0.0158938 to 0.0158938
Heightened Def Con from 0.0158985 to 0.0158985
Heightened Def Con from 0.0159014 to 0.0159014
Heightened Def Con from 0.0159037 to 0.0159037
Heightened Def Con from 0.0159066 to 0.0159066
Heightened Def Con from 0.0159116 to 0.0159116
Heightened Def Con from 0.0159163 to 0.0159163
Heightened Def Con from 0.0159213 to 0.0159213
Heightened Def Con from 0.0159252 to 0.0159252
Heightened Def Con from 0.0159284 to 0.0159284
Heightened Def Con from 0.0159314 to 0.0159314
Heightened Def Con from 0.0159342 to 0.0159342
Heightened Def Con from 0.0159371 to 0.0159371
Heightened Def Con from 0.0159401 to 0.0159401
Heightened Def Con from 0.0159431 to 0.0159431
Heightened Def Con from 0.0159461 to 0.0159461
Heightened Def Con from 0.015949 to 0.0159491
Heightened Def Con from 0.0159531 to 0.0159531
Heightened Def Con from 0.015956 to 0.015956
Heightened Def Con from 0.0159589 to 0.0159589
Heightened Def Con from 0.0159629 to 0.0159629
Heightened Def Con from 0.0159679 to 0.0159679
Heightened Def Con from 0.0159718 to 0.0159718
Heightened Def Con from 0.0159748 to 0.0159748
Heightened Def Con from 0.0159778 to 0.0159778
Heightened Def Con from 0.0159807 to 0.0159807
Heightened Def Con from 0.0159847 to 0.0159847
Heightened Def Con from 0.0159867 to 0.0159867
Heightened Def Con from 0.0159896 to 0.0159896
Heightened Def Con from 0.0159916 to 0.0159916
Heightened Def Con from 0.0159945 to 0.0159945
Heightened Def Con from 0.0159974 to 0.0159974
Heightened Def Con from 0.0159995 to 0.0159995
Heightened Def Con from 0.0160023 to 0.0160023
Heightened Def Con from 0.0160055 to 0.0160055
Heightened Def Con from 0.0160103 to 0.0160103
Heightened Def Con from 0.0160146 to 0.0160146
Heightened Def Con from 0.0160181 to 0.0160181
Heightened Def Con from 0.0160222 to 0.0160222
Heightened Def Con from 0.0160252 to 0.0160252
Heightened Def Con from 0.0160289 to 0.0160289
Heightened Def Con from 0.0160311 to 0.0160311
Heightened Def Con from 0.0160338 to 0.0160338
Heightened Def Con from 0.0160361 to 0.0160361
Heightened Def Con from 0.0160387 to 0.0160387
Heightened Def Con from 0.016041 to 0.016041
Heightened Def Con from 0.016041 to 0.016041
Heightened Def Con from 0.0160439 to 0.0160439
Heightened Def Con from 0.0160439 to 0.0160439
Heightened Def Con from 0.0160439 to 0.0160439
Heightened Def Con from 0.0160477 to 0.0160477
Heightened Def Con from 0.0160477 to 0.0160477
Heightened Def Con from 0.0160477 to 0.0160477
Heightened Def Con from 0.0160512 to 0.0160512
Heightened Def Con from 0.0160512 to 0.0160512
Heightened Def Con from 0.0160512 to 0.0160512
Heightened Def Con from 0.0160546 to 0.0160546
Heightened Def Con from 0.0160546 to 0.0160546
Heightened Def Con from 0.0160575 to 0.0160575
Heightened Def Con from 0.0160575 to 0.0160575
Heightened Def Con from 0.0160608 to 0.0160608
Heightened Def Con from 0.0160608 to 0.0160608
Heightened Def Con from 0.0160638 to 0.0160638
Heightened Def Con from 0.0160638 to 0.0160638
Heightened Def Con from 0.0160638 to 0.0160638
Heightened Def Con from 0.0160638 to 0.0160638
Heightened Def Con from 0.0160662 to 0.0160662
Heightened Def Con from 0.0160662 to 0.0160662
Heightened Def Con from 0.0160684 to 0.0160684
Heightened Def Con from 0.0160684 to 0.0160684
Heightened Def Con from 0.0160725 to 0.0160725
Heightened Def Con from 0.0160725 to 0.0160725
Heightened Def Con from 0.0160725 to 0.0160725
Heightened Def Con from 0.0160725 to 0.0160725
Heightened Def Con from 0.016075 to 0.016075
Heightened Def Con from 0.016075 to 0.016075
Heightened Def Con from 0.0160775 to 0.0160775
Heightened Def Con from 0.0160775 to 0.0160775
Heightened Def Con from 0.0160807 to 0.0160807
Heightened Def Con from 0.0160845 to 0.0160845
Heightened Def Con from 0.0160885 to 0.0160885
Heightened Def Con from 0.0160885 to 0.0160885
Heightened Def Con from 0.0160885 to 0.0160885
Heightened Def Con from 0.0160912 to 0.0160912
Heightened Def Con from 0.016095 to 0.016095
Heightened Def Con from 0.0160973 to 0.0160973
Heightened Def Con from 0.0160973 to 0.0160973
Heightened Def Con from 0.0161021 to 0.0161021
Heightened Def Con from 0.0161021 to 0.0161021
Heightened Def Con from 0.0161055 to 0.0161055
Heightened Def Con from 0.0161055 to 0.0161055
Heightened Def Con from 0.0161107 to 0.0161107
Heightened Def Con from 0.0161176 to 0.0161176
Heightened Def Con from 0.0161176 to 0.0161176
Heightened Def Con from 0.0161217 to 0.0161217
Heightened Def Con from 0.0161217 to 0.0161217
Heightened Def Con from 0.0161278 to 0.0161278
Heightened Def Con from 0.0161278 to 0.0161278
Heightened Def Con from 0.0161278 to 0.0161278
Heightened Def Con from 0.0161316 to 0.0161316
Heightened Def Con from 0.0161316 to 0.0161316
Heightened Def Con from 0.0161392 to 0.0161392
Heightened Def Con from 0.0161487 to 0.0161487
Heightened Def Con from 0.0161558 to 0.0161558
Heightened Def Con from 0.0161637 to 0.0161637
Heightened Def Con from 0.0161703 to 0.0161703
Heightened Def Con from 0.0161815 to 0.0161815
Heightened Def Con from 0.0161978 to 0.0161978
Heightened Def Con from 0.0162343 to 0.0162343
Heightened Def Con from 0.017339 to 0.017339
Heightened Def Con from 0.0173563 to 0.0173564
Heightened Def Con from 0.0173613 to 0.0173613
Heightened Def Con from 0.0173641 to 0.0173641
Heightened Def Con from 0.0173641 to 0.0173641
Heightened Def Con from 0.0173711 to 0.0173711
Heightened Def Con from 0.0173711 to 0.0173711
Heightened Def Con from 0.0173762 to 0.0173762
Heightened Def Con from 0.0173827 to 0.0173827
Heightened Def Con from 0.0173897 to 0.0173897
Heightened Def Con from 0.0173977 to 0.0173977
Heightened Def Con from 0.017404 to 0.017404
Heightened Def Con from 0.0174092 to 0.0174092
Heightened Def Con from 0.0174151 to 0.0174151
Heightened Def Con from 0.0174239 to 0.0174239
Heightened Def Con from 0.0174348 to 0.0174348
Heightened Def Con from 0.0174456 to 0.0174456
Heightened Def Con from 0.0174565 to 0.0174565
Heightened Def Con from 0.017469 to 0.017469
Heightened Def Con from 0.017469 to 0.017469
Heightened Def Con from 0.017507 to 0.017507
Heightened Def Con from 0.0175392 to 0.0175393
Heightened Def Con from 0.0175799 to 0.0175799
Heightened Def Con from 0.0176229 to 0.0176229
Heightened Def Con from 0.0176396 to 0.0176396
Heightened Def Con from 0.0176544 to 0.0176544
Heightened Def Con from 0.0176701 to 0.0176701
Heightened Def Con from 0.0176857 to 0.0176857
Heightened Def Con from 0.0176989 to 0.0176989
Heightened Def Con from 0.0177123 to 0.0177123
Heightened Def Con from 0.0177301 to 0.0177301
Heightened Def Con from 0.0177394 to 0.0177394
Heightened Def Con from 0.0177523 to 0.0177523
Heightened Def Con from 0.0177603 to 0.0177603
Heightened Def Con from 0.0177678 to 0.0177678
Heightened Def Con from 0.0177775 to 0.0177775
Heightened Def Con from 0.0177863 to 0.0177863
Heightened Def Con from 0.0177863 to 0.0177863
Heightened Def Con from 0.0177863 to 0.0177863
Heightened Def Con from 0.0177863 to 0.0177863
Heightened Def Con from 0.0177863 to 0.0177863
Heightened Def Con from 0.0177863 to 0.0177863
Heightened Def Con from 0.0177912 to 0.0177912
Heightened Def Con from 0.0177912 to 0.0177912
Heightened Def Con from 0.0177912 to 0.0177912
Heightened Def Con from 0.0177912 to 0.0177912
Heightened Def Con from 0.0177912 to 0.0177912
Heightened Def Con from 0.0177966 to 0.0177966
Heightened Def Con from 0.0177966 to 0.0177966
Heightened Def Con from 0.0178001 to 0.0178001
Heightened Def Con from 0.0178001 to 0.0178001
Heightened Def Con from 0.0178039 to 0.0178039
Heightened Def Con from 0.0178039 to 0.0178039
Heightened Def Con from 0.0178096 to 0.0178096
Heightened Def Con from 0.0178096 to 0.0178096
Heightened Def Con from 0.0178136 to 0.0178136
Heightened Def Con from 0.0178136 to 0.0178136
Heightened Def Con from 0.0178136 to 0.0178136
Heightened Def Con from 0.0178136 to 0.0178137
Heightened Def Con from 0.0178176 to 0.0178176
Heightened Def Con from 0.017821 to 0.017821
Heightened Def Con from 0.0178245 to 0.0178245
Heightened Def Con from 0.0178245 to 0.0178245
Heightened Def Con from 0.0178293 to 0.0178293
Heightened Def Con from 0.0178323 to 0.0178323
Heightened Def Con from 0.0178323 to 0.0178323
Heightened Def Con from 0.0178352 to 0.0178352
Heightened Def Con from 0.0178352 to 0.0178352
Heightened Def Con from 0.0178374 to 0.0178374
Heightened Def Con from 0.0178414 to 0.0178414
Heightened Def Con from 0.0178461 to 0.0178461
Heightened Def Con from 0.0178496 to 0.0178496
Heightened Def Con from 0.0178496 to 0.0178496
Heightened Def Con from 0.0178548 to 0.0178548
Heightened Def Con from 0.0178548 to 0.0178548
Heightened Def Con from 0.0178548 to 0.0178548
Heightened Def Con from 0.0178586 to 0.0178586
Heightened Def Con from 0.0178586 to 0.0178586
Heightened Def Con from 0.0178627 to 0.0178627
Heightened Def Con from 0.0178662 to 0.0178662
Heightened Def Con from 0.0178704 to 0.0178704
Heightened Def Con from 0.0178704 to 0.0178704
Heightened Def Con from 0.0178704 to 0.0178704
Heightened Def Con from 0.0178744 to 0.0178744
Heightened Def Con from 0.0178744 to 0.0178744
Heightened Def Con from 0.0178744 to 0.0178744
Heightened Def Con from 0.0178744 to 0.0178744
Heightened Def Con from 0.0178744 to 0.0178744
Heightened Def Con from 0.0178744 to 0.0178744
Heightened Def Con from 0.0178744 to 0.0178744
Heightened Def Con from 0.0178744 to 0.0178744
Heightened Def Con from 0.0178744 to 0.0178744
Heightened Def Con from 0.0178745 to 0.0178745
Heightened Def Con from 0.0178745 to 0.0178745
Heightened Def Con from 0.0178745 to 0.0178745
Heightened Def Con from 0.0178745 to 0.0178745
Heightened Def Con from 0.0178788 to 0.0178788
Heightened Def Con from 0.0178825 to 0.0178825
Heightened Def Con from 0.0178865 to 0.0178865
Heightened Def Con from 0.0178925 to 0.0178925
Heightened Def Con from 0.0178966 to 0.0178966
Heightened Def Con from 0.0179061 to 0.0179061
Heightened Def Con from 0.0179117 to 0.0179117
Heightened Def Con from 0.0179157 to 0.0179157
Heightened Def Con from 0.01792 to 0.01792
Heightened Def Con from 0.0179247 to 0.0179247
Heightened Def Con from 0.0179288 to 0.0179288
Heightened Def Con from 0.0179329 to 0.0179329
Heightened Def Con from 0.0179376 to 0.0179376
Heightened Def Con from 0.0179418 to 0.0179418
Heightened Def Con from 0.0179459 to 0.0179459
Heightened Def Con from 0.0179499 to 0.0179499
Heightened Def Con from 0.0179567 to 0.0179567
Heightened Def Con from 0.0179605 to 0.0179605
Heightened Def Con from 0.0179605 to 0.0179605
Heightened Def Con from 0.0179605 to 0.0179605
Heightened Def Con from 0.0179605 to 0.0179605
Heightened Def Con from 0.0179605 to 0.0179605
Heightened Def Con from 0.0179605 to 0.0179605
Heightened Def Con from 0.0179605 to 0.0179605
Heightened Def Con from 0.0179605 to 0.0179605
Heightened Def Con from 0.0179605 to 0.0179605
Heightened Def Con from 0.0179605 to 0.0179605
Heightened Def Con from 0.0179605 to 0.0179605
Heightened Def Con from 0.0179605 to 0.0179605
Heightened Def Con from 0.017966 to 0.017966
Heightened Def Con from 0.01797 to 0.01797
Heightened Def Con from 0.017974 to 0.017974
Heightened Def Con from 0.0179788 to 0.0179788
Heightened Def Con from 0.0179846 to 0.0179846
Heightened Def Con from 0.0179846 to 0.0179846
Heightened Def Con from 0.0179901 to 0.0179901
Heightened Def Con from 0.0179941 to 0.0179941
Heightened Def Con from 0.0180009 to 0.0180009
Heightened Def Con from 0.0180009 to 0.0180009
Heightened Def Con from 0.0180069 to 0.0180069
Heightened Def Con from 0.0180106 to 0.0180106
Heightened Def Con from 0.018015 to 0.018015
Heightened Def Con from 0.0180212 to 0.0180212
Heightened Def Con from 0.0180212 to 0.0180212
Heightened Def Con from 0.0180253 to 0.0180253
Heightened Def Con from 0.0180303 to 0.0180303
Heightened Def Con from 0.0180303 to 0.0180303
Heightened Def Con from 0.0180357 to 0.0180358
Heightened Def Con from 0.0180403 to 0.0180403
Heightened Def Con from 0.0180453 to 0.0180453
Heightened Def Con from 0.0180493 to 0.0180493
Heightened Def Con from 0.0180533 to 0.0180533
Heightened Def Con from 0.0180573 to 0.0180573
Heightened Def Con from 0.0180573 to 0.0180573
Heightened Def Con from 0.0180573 to 0.0180573
Heightened Def Con from 0.0180613 to 0.0180613
Heightened Def Con from 0.0180649 to 0.0180649
Heightened Def Con from 0.0180689 to 0.0180689
Heightened Def Con from 0.0180689 to 0.018069
Heightened Def Con from 0.0180713 to 0.0180713
Heightened Def Con from 0.018075 to 0.018075
Heightened Def Con from 0.0180791 to 0.0180791
Heightened Def Con from 0.0180791 to 0.0180791
Heightened Def Con from 0.0180833 to 0.0180833
Heightened Def Con from 0.0180881 to 0.0180881
Heightened Def Con from 0.0180941 to 0.0180941
Heightened Def Con from 0.0180981 to 0.0180981
Heightened Def Con from 0.0181021 to 0.0181021
Heightened Def Con from 0.0181053 to 0.0181053
Heightened Def Con from 0.0181083 to 0.0181083
Heightened Def Con from 0.0181132 to 0.0181132
Heightened Def Con from 0.0181172 to 0.0181172
Heightened Def Con from 0.01812 to 0.01812
Heightened Def Con from 0.0181222 to 0.0181222
Heightened Def Con from 0.0181272 to 0.0181272
Heightened Def Con from 0.0181322 to 0.0181322
Heightened Def Con from 0.0181363 to 0.0181363
Heightened Def Con from 0.0181393 to 0.0181393
Heightened Def Con from 0.0181433 to 0.0181433
Heightened Def Con from 0.0181463 to 0.0181463
Heightened Def Con from 0.0181511 to 0.0181511
Heightened Def Con from 0.0181511 to 0.0181511
Heightened Def Con from 0.0181561 to 0.0181561
Heightened Def Con from 0.0181611 to 0.0181611
Heightened Def Con from 0.0181652 to 0.0181652
Heightened Def Con from 0.0181684 to 0.0181684
Heightened Def Con from 0.018172 to 0.018172
Heightened Def Con from 0.0181767 to 0.0181767
Heightened Def Con from 0.0181804 to 0.0181804
Heightened Def Con from 0.0181849 to 0.0181849
Heightened Def Con from 0.0181849 to 0.0181849
Heightened Def Con from 0.0181889 to 0.0181889
Heightened Def Con from 0.0181889 to 0.0181889
Heightened Def Con from 0.0181939 to 0.0181939
Heightened Def Con from 0.0181974 to 0.0181974
Heightened Def Con from 0.0181974 to 0.0181974
Heightened Def Con from 0.0182014 to 0.0182014
Heightened Def Con from 0.0182054 to 0.0182054
Heightened Def Con from 0.0182085 to 0.0182085
Heightened Def Con from 0.0182115 to 0.0182115
Heightened Def Con from 0.0182154 to 0.0182155
Heightened Def Con from 0.0182214 to 0.0182214
Heightened Def Con from 0.0182214 to 0.0182214
Heightened Def Con from 0.0182254 to 0.0182254
Heightened Def Con from 0.0182285 to 0.0182285
Heightened Def Con from 0.0182324 to 0.0182324
Heightened Def Con from 0.0182365 to 0.0182365
Heightened Def Con from 0.0182365 to 0.0182365
Heightened Def Con from 0.0182404 to 0.0182404
Heightened Def Con from 0.0182444 to 0.0182444
Heightened Def Con from 0.0182473 to 0.0182473
Heightened Def Con from 0.0182513 to 0.0182513
Heightened Def Con from 0.0182542 to 0.0182542
Heightened Def Con from 0.0182572 to 0.0182572
Heightened Def Con from 0.0182602 to 0.0182602
Heightened Def Con from 0.0182631 to 0.0182631
Heightened Def Con from 0.0182663 to 0.0182663
Heightened Def Con from 0.0182693 to 0.0182693
Heightened Def Con from 0.0182723 to 0.0182723
Heightened Def Con from 0.0182763 to 0.0182763
Heightened Def Con from 0.0182803 to 0.0182803
Heightened Def Con from 0.0182849 to 0.0182849
Heightened Def Con from 0.0182849 to 0.0182849
Heightened Def Con from 0.0182888 to 0.0182888
Heightened Def Con from 0.0182922 to 0.0182922
Heightened Def Con from 0.0182952 to 0.0182952
Heightened Def Con from 0.0182997 to 0.0182997
Heightened Def Con from 0.0183032 to 0.0183032
Heightened Def Con from 0.0183075 to 0.0183075
Heightened Def Con from 0.0183111 to 0.0183111
Heightened Def Con from 0.0183141 to 0.0183141
Heightened Def Con from 0.0183164 to 0.0183164
Heightened Def Con from 0.0183193 to 0.0183193
Heightened Def Con from 0.0183223 to 0.0183223
Heightened Def Con from 0.0183252 to 0.0183252
Heightened Def Con from 0.018329 to 0.018329
Heightened Def Con from 0.0183321 to 0.0183321
Heightened Def Con from 0.0183369 to 0.0183369
Heightened Def Con from 0.0183399 to 0.0183399
Heightened Def Con from 0.0183421 to 0.0183421
Heightened Def Con from 0.0183468 to 0.0183468
Heightened Def Con from 0.0183489 to 0.0183489
Heightened Def Con from 0.0183528 to 0.0183528
Heightened Def Con from 0.0183566 to 0.0183566
Heightened Def Con from 0.0183607 to 0.0183607
Heightened Def Con from 0.0183635 to 0.0183636
Heightened Def Con from 0.0183665 to 0.0183666
Heightened Def Con from 0.0183686 to 0.0183686
Heightened Def Con from 0.0183686 to 0.0183686
Heightened Def Con from 0.0183706 to 0.0183706
Heightened Def Con from 0.0183706 to 0.0183706
Heightened Def Con from 0.0183706 to 0.0183706
Heightened Def Con from 0.0183706 to 0.0183706
Heightened Def Con from 0.0183706 to 0.0183706
Heightened Def Con from 0.0183734 to 0.0183734
Heightened Def Con from 0.0183734 to 0.0183734
Heightened Def Con from 0.0183734 to 0.0183734
Heightened Def Con from 0.0183763 to 0.0183763
Heightened Def Con from 0.0183763 to 0.0183763
Heightened Def Con from 0.0183763 to 0.0183763
Heightened Def Con from 0.0183795 to 0.0183795
Heightened Def Con from 0.0183795 to 0.0183795
Heightened Def Con from 0.0183795 to 0.0183795
Heightened Def Con from 0.0183822 to 0.0183822
Heightened Def Con from 0.0183822 to 0.0183822
Heightened Def Con from 0.0183852 to 0.0183852
Heightened Def Con from 0.0183874 to 0.0183874
Heightened Def Con from 0.0183896 to 0.0183896
Heightened Def Con from 0.0183896 to 0.0183897
Heightened Def Con from 0.0183921 to 0.0183921
Heightened Def Con from 0.0183943 to 0.0183943
Heightened Def Con from 0.0183943 to 0.0183943
Heightened Def Con from 0.0183972 to 0.0183972
Heightened Def Con from 0.0184001 to 0.0184001
Heightened Def Con from 0.0184001 to 0.0184001
Heightened Def Con from 0.0184032 to 0.0184032
Heightened Def Con from 0.0184032 to 0.0184032
Heightened Def Con from 0.0184071 to 0.0184071
Heightened Def Con from 0.0184071 to 0.0184071
Heightened Def Con from 0.0184071 to 0.0184071
Heightened Def Con from 0.0184071 to 0.0184071
Heightened Def Con from 0.0184104 to 0.0184104
Heightened Def Con from 0.0184104 to 0.0184104
Heightened Def Con from 0.0184135 to 0.0184135
Heightened Def Con from 0.0184135 to 0.0184135
Heightened Def Con from 0.0184163 to 0.0184163
Heightened Def Con from 0.0184193 to 0.0184193
Heightened Def Con from 0.0184205 to 0.0184205
Heightened Def Con from 0.0184259 to 0.0184259
Heightened Def Con from 0.0184259 to 0.0184259
Heightened Def Con from 0.0184259 to 0.0184259
Heightened Def Con from 0.0184288 to 0.0184288
Heightened Def Con from 0.0184317 to 0.0184317
Heightened Def Con from 0.0184358 to 0.0184358
Heightened Def Con from 0.0184358 to 0.0184358
Heightened Def Con from 0.0184397 to 0.0184397
Heightened Def Con from 0.0184397 to 0.0184397
Heightened Def Con from 0.0184444 to 0.0184444
Heightened Def Con from 0.0184444 to 0.0184444
Heightened Def Con from 0.0184487 to 0.0184487
Heightened Def Con from 0.0184487 to 0.0184487
Heightened Def Con from 0.0184527 to 0.0184527
Heightened Def Con from 0.0184527 to 0.0184527
Heightened Def Con from 0.0184594 to 0.0184594
Heightened Def Con from 0.0184594 to 0.0184594
Heightened Def Con from 0.0184594 to 0.0184594
Heightened Def Con from 0.0184594 to 0.0184594
Heightened Def Con from 0.0184594 to 0.0184594
Heightened Def Con from 0.0184594 to 0.0184594
Heightened Def Con from 0.0184594 to 0.0184594
Heightened Def Con from 0.0184594 to 0.0184594
Heightened Def Con from 0.0184594 to 0.0184594
Heightened Def Con from 0.0184594 to 0.0184594
Heightened Def Con from 0.0184594 to 0.0184594
Heightened Def Con from 0.0184594 to 0.0184594
Heightened Def Con from 0.0184594 to 0.0184594
Heightened Def Con from 0.0184594 to 0.0184594
Heightened Def Con from 0.0184594 to 0.0184594
Heightened Def Con from 0.0184594 to 0.0184594
Heightened Def Con from 0.0184594 to 0.0184594
Heightened Def Con from 0.0184594 to 0.0184594
Heightened Def Con from 0.0184594 to 0.0184594
Heightened Def Con from 0.0184594 to 0.0184594
Heightened Def Con from 0.0184594 to 0.0184594
Heightened Def Con from 0.0184594 to 0.0184594
Heightened Def Con from 0.0184594 to 0.0184594
Heightened Def Con from 0.0184594 to 0.0184594
Heightened Def Con from 0.0184594 to 0.0184594
Heightened Def Con from 0.0184594 to 0.0184594
Heightened Def Con from 0.0184594 to 0.0184594
Heightened Def Con from 0.0184594 to 0.0184594
Heightened Def Con from 0.0184594 to 0.0184594
Heightened Def Con from 0.0184594 to 0.0184594
Heightened Def Con from 0.0184594 to 0.0184594
Heightened Def Con from 0.0184594 to 0.0184594
Heightened Def Con from 0.0184594 to 0.0184594
Heightened Def Con from 0.0184594 to 0.0184594
Heightened Def Con from 0.0184594 to 0.0184594
Heightened Def Con from 0.0184594 to 0.0184594
Heightened Def Con from 0.0184594 to 0.0184594
Heightened Def Con from 0.0184594 to 0.0184594
Heightened Def Con from 0.0184594 to 0.0184594
Heightened Def Con from 0.0184594 to 0.0184594
Heightened Def Con from 0.0184594 to 0.0184595
Heightened Def Con from 0.0184595 to 0.0184595
Heightened Def Con from 0.0184595 to 0.0184595
Heightened Def Con from 0.0184595 to 0.0184595
Heightened Def Con from 0.0184595 to 0.0184595
Heightened Def Con from 0.0184595 to 0.0184595
Heightened Def Con from 0.0184595 to 0.0184595
Heightened Def Con from 0.0184595 to 0.0184595
Heightened Def Con from 0.0184595 to 0.0184595
Heightened Def Con from 0.0184595 to 0.0184595
Heightened Def Con from 0.0184595 to 0.0184595
Heightened Def Con from 0.0184595 to 0.0184595
Heightened Def Con from 0.0184595 to 0.0184595
Heightened Def Con from 0.0184595 to 0.0184595
Heightened Def Con from 0.0184595 to 0.0184595
Heightened Def Con from 0.0184595 to 0.0184595
Heightened Def Con from 0.0184595 to 0.0184595
Heightened Def Con from 0.0184595 to 0.0184595
Heightened Def Con from 0.0184595 to 0.0184595
Heightened Def Con from 0.0184595 to 0.0184595
Heightened Def Con from 0.0184595 to 0.0184595
Heightened Def Con from 0.0184595 to 0.0184595
Heightened Def Con from 0.0184595 to 0.0184595
Heightened Def Con from 0.0184595 to 0.0184595
Heightened Def Con from 0.0184595 to 0.0184595
Heightened Def Con from 0.0184595 to 0.0184595
Heightened Def Con from 0.0184595 to 0.0184595
Heightened Def Con from 0.0184595 to 0.0184595
Heightened Def Con from 0.0184595 to 0.0184595
Heightened Def Con from 0.0184595 to 0.0184595
Heightened Def Con from 0.0184595 to 0.0184595
Heightened Def Con from 0.0184595 to 0.0184595
Heightened Def Con from 0.0184595 to 0.0184595
Heightened Def Con from 0.0184595 to 0.0184595
Heightened Def Con from 0.0184595 to 0.0184595
Heightened Def Con from 0.0184595 to 0.0184595
Heightened Def Con from 0.0184595 to 0.0184595
Heightened Def Con from 0.0184595 to 0.0184595
Heightened Def Con from 0.0184595 to 0.0184595
Heightened Def Con from 0.0184595 to 0.0184595
Heightened Def Con from 0.0184595 to 0.0184595
Heightened Def Con from 0.0184595 to 0.0184595
Heightened Def Con from 0.0184595 to 0.0184595
Heightened Def Con from 0.0184595 to 0.0184595
Heightened Def Con from 0.0184595 to 0.0184595
Heightened Def Con from 0.0184595 to 0.0184595
Heightened Def Con from 0.0184595 to 0.0184595
Heightened Def Con from 0.0184595 to 0.0184595
Heightened Def Con from 0.0184595 to 0.0184595
Heightened Def Con from 0.0184595 to 0.0184595
Heightened Def Con from 0.0184595 to 0.0184595
Heightened Def Con from 0.0184595 to 0.0184595
Heightened Def Con from 0.0184595 to 0.0184595
Heightened Def Con from 0.0184595 to 0.0184595
Heightened Def Con from 0.0184595 to 0.0184595
Heightened Def Con from 0.0184595 to 0.0184595
Heightened Def Con from 0.0184595 to 0.0184595
Heightened Def Con from 0.0184595 to 0.0184595
Heightened Def Con from 0.0184595 to 0.0184595
Heightened Def Con from 0.0184595 to 0.0184595
Heightened Def Con from 0.0184595 to 0.0184595
Heightened Def Con from 0.0184595 to 0.0184595
Heightened Def Con from 0.0184595 to 0.0184595
Heightened Def Con from 0.0184595 to 0.0184595
Heightened Def Con from 0.0184595 to 0.0184595
Heightened Def Con from 0.0184595 to 0.0184595
Heightened Def Con from 0.0184595 to 0.0184595
Heightened Def Con from 0.0184595 to 0.0184595
Heightened Def Con from 0.0184595 to 0.0184595
Heightened Def Con from 0.0184595 to 0.0184595
Heightened Def Con from 0.0184595 to 0.0184595
Heightened Def Con from 0.0184595 to 0.0184595
Heightened Def Con from 0.0184636 to 0.0184636
Heightened Def Con from 0.0184695 to 0.0184695
Heightened Def Con from 0.018481 to 0.018481
Heightened Def Con from 0.0184917 to 0.0184917
Heightened Def Con from 0.0185016 to 0.0185016
Heightened Def Con from 0.0185095 to 0.0185095
Heightened Def Con from 0.0185174 to 0.0185174
Heightened Def Con from 0.0185255 to 0.0185255
Heightened Def Con from 0.0185359 to 0.0185359
Heightened Def Con from 0.0185468 to 0.0185468
Heightened Def Con from 0.0185547 to 0.0185547
Heightened Def Con from 0.0185634 to 0.0185634
Heightened Def Con from 0.0185881 to 0.0185881
Heightened Def Con from 0.0186184 to 0.0186184
Heightened Def Con from 0.0190026 to 0.0190026
Heightened Def Con from 0.0190364 to 0.0190364
Heightened Def Con from 0.0190364 to 0.0190364
Heightened Def Con from 0.0190364 to 0.0190365
Heightened Def Con from 0.0190365 to 0.0190365
Heightened Def Con from 0.0190457 to 0.0190457
Heightened Def Con from 0.0190528 to 0.0190528
Heightened Def Con from 0.0190593 to 0.0190593
Heightened Def Con from 0.0190651 to 0.0190651
Heightened Def Con from 0.0190721 to 0.0190721
Heightened Def Con from 0.0190768 to 0.0190768
Heightened Def Con from 0.0190808 to 0.0190808
Heightened Def Con from 0.0190848 to 0.0190848
Heightened Def Con from 0.0190889 to 0.0190889
Heightened Def Con from 0.0190929 to 0.0190929
Heightened Def Con from 0.0191003 to 0.0191003
Heightened Def Con from 0.0191049 to 0.0191049
Heightened Def Con from 0.0191097 to 0.0191097
Heightened Def Con from 0.019114 to 0.019114
Heightened Def Con from 0.019118 to 0.019118
Heightened Def Con from 0.0191218 to 0.0191218
Heightened Def Con from 0.019125 to 0.019125
Heightened Def Con from 0.019129 to 0.019129
Heightened Def Con from 0.019132 to 0.019132
Heightened Def Con from 0.019136 to 0.019136
Heightened Def Con from 0.0191411 to 0.0191411
Heightened Def Con from 0.0191451 to 0.0191451
Heightened Def Con from 0.0191521 to 0.0191521
Heightened Def Con from 0.0191532 to 0.0191532
Heightened Def Con from 0.0191589 to 0.0191589
Heightened Def Con from 0.0191631 to 0.0191631
Heightened Def Con from 0.0191665 to 0.0191665
Heightened Def Con from 0.0191734 to 0.0191734
Heightened Def Con from 0.0191734 to 0.0191734
Heightened Def Con from 0.0191772 to 0.0191772
Heightened Def Con from 0.0191802 to 0.0191802
Heightened Def Con from 0.0191842 to 0.0191842
Heightened Def Con from 0.0191872 to 0.0191872
Heightened Def Con from 0.0191912 to 0.0191912
Heightened Def Con from 0.0191952 to 0.0191952
Heightened Def Con from 0.0191992 to 0.0191992
Heightened Def Con from 0.0192032 to 0.0192032
Heightened Def Con from 0.0192072 to 0.0192072
Heightened Def Con from 0.0192112 to 0.0192112
Heightened Def Con from 0.0192152 to 0.0192152
Heightened Def Con from 0.0192192 to 0.0192192
Heightened Def Con from 0.0192192 to 0.0192192
Heightened Def Con from 0.0192232 to 0.0192232
Heightened Def Con from 0.0192272 to 0.0192272
Heightened Def Con from 0.0192303 to 0.0192303
Heightened Def Con from 0.0192343 to 0.0192343
Heightened Def Con from 0.0192382 to 0.0192382
Heightened Def Con from 0.0192413 to 0.0192413
Heightened Def Con from 0.0192453 to 0.0192453
Heightened Def Con from 0.0192492 to 0.0192492
Heightened Def Con from 0.0192532 to 0.0192532
Heightened Def Con from 0.0192572 to 0.0192572
Heightened Def Con from 0.0192602 to 0.0192602
Heightened Def Con from 0.0192632 to 0.0192632
Heightened Def Con from 0.0192672 to 0.0192672
Heightened Def Con from 0.0192701 to 0.0192701
Heightened Def Con from 0.0192751 to 0.0192751
Heightened Def Con from 0.0192811 to 0.0192811
Heightened Def Con from 0.0192844 to 0.0192844
Heightened Def Con from 0.0192885 to 0.0192885
Heightened Def Con from 0.0192921 to 0.0192921
Heightened Def Con from 0.0192961 to 0.0192961
Heightened Def Con from 0.0193001 to 0.0193001
Heightened Def Con from 0.019303 to 0.019303
Heightened Def Con from 0.0193075 to 0.0193075
Heightened Def Con from 0.0193125 to 0.0193125
Heightened Def Con from 0.019317 to 0.019317
Heightened Def Con from 0.0193213 to 0.0193213
Heightened Def Con from 0.0193256 to 0.0193256
Heightened Def Con from 0.0193296 to 0.0193296
Heightened Def Con from 0.0193296 to 0.0193296
Heightened Def Con from 0.0193335 to 0.0193335
Heightened Def Con from 0.0193376 to 0.0193376
Heightened Def Con from 0.0193426 to 0.0193426
Heightened Def Con from 0.0193476 to 0.0193476
Heightened Def Con from 0.0193526 to 0.0193526
Heightened Def Con from 0.0193557 to 0.0193557
Heightened Def Con from 0.0193597 to 0.0193597
Heightened Def Con from 0.0193626 to 0.0193626
Heightened Def Con from 0.0193657 to 0.0193657
Heightened Def Con from 0.0193706 to 0.0193706
Heightened Def Con from 0.0193736 to 0.0193736
Heightened Def Con from 0.0193776 to 0.0193776
Heightened Def Con from 0.0193805 to 0.0193805
Heightened Def Con from 0.0193846 to 0.0193846
Heightened Def Con from 0.0193884 to 0.0193884
Heightened Def Con from 0.0193914 to 0.0193914
Heightened Def Con from 0.0193953 to 0.0193953
Heightened Def Con from 0.0193983 to 0.0193984
Heightened Def Con from 0.0194016 to 0.0194016
Heightened Def Con from 0.0194016 to 0.0194016
Heightened Def Con from 0.0194046 to 0.0194046
Heightened Def Con from 0.0194082 to 0.0194082
Heightened Def Con from 0.0194121 to 0.0194121
Heightened Def Con from 0.0194159 to 0.0194159
Heightened Def Con from 0.0194205 to 0.0194206
Heightened Def Con from 0.019424 to 0.019424
Heightened Def Con from 0.0194279 to 0.0194279
Heightened Def Con from 0.0194325 to 0.0194325
Heightened Def Con from 0.0194368 to 0.0194368
Heightened Def Con from 0.0194395 to 0.0194395
Heightened Def Con from 0.0194425 to 0.0194425
Heightened Def Con from 0.0194467 to 0.0194467
Heightened Def Con from 0.0194506 to 0.0194506
Heightened Def Con from 0.0194554 to 0.0194554
Heightened Def Con from 0.0194584 to 0.0194584
Heightened Def Con from 0.0194613 to 0.0194613
Heightened Def Con from 0.0194644 to 0.0194644
Heightened Def Con from 0.0194674 to 0.0194674
Heightened Def Con from 0.0194723 to 0.0194723
Heightened Def Con from 0.0194763 to 0.0194763
Heightened Def Con from 0.0194792 to 0.0194792
Heightened Def Con from 0.0194822 to 0.0194822
Heightened Def Con from 0.0194851 to 0.0194851
Heightened Def Con from 0.0194873 to 0.0194873
Heightened Def Con from 0.019491 to 0.019491
Heightened Def Con from 0.0194941 to 0.0194941
Heightened Def Con from 0.019497 to 0.019497
Heightened Def Con from 0.0194999 to 0.0194999
Heightened Def Con from 0.0195039 to 0.019504
Heightened Def Con from 0.0195087 to 0.0195087
Heightened Def Con from 0.0195117 to 0.0195117
Heightened Def Con from 0.0195146 to 0.0195146
Heightened Def Con from 0.0195176 to 0.0195176
Heightened Def Con from 0.01952 to 0.01952
Heightened Def Con from 0.019524 to 0.019524
Heightened Def Con from 0.019527 to 0.019527
Heightened Def Con from 0.0195299 to 0.0195299
Heightened Def Con from 0.0195329 to 0.0195329
Heightened Def Con from 0.0195329 to 0.0195329
Heightened Def Con from 0.0195329 to 0.0195329
Heightened Def Con from 0.0195329 to 0.0195329
Heightened Def Con from 0.0195362 to 0.0195362
Heightened Def Con from 0.0195362 to 0.0195362
Heightened Def Con from 0.0195392 to 0.0195392
Heightened Def Con from 0.0195392 to 0.0195392
Heightened Def Con from 0.0195418 to 0.0195418
Heightened Def Con from 0.0195418 to 0.0195418
Heightened Def Con from 0.0195418 to 0.0195418
Heightened Def Con from 0.0195418 to 0.0195418
Heightened Def Con from 0.0195418 to 0.0195418
Heightened Def Con from 0.0195418 to 0.0195418
Heightened Def Con from 0.0195418 to 0.0195418
Heightened Def Con from 0.0195418 to 0.0195418
Heightened Def Con from 0.0195448 to 0.0195448
Heightened Def Con from 0.0195448 to 0.0195448
Heightened Def Con from 0.0195477 to 0.0195477
Heightened Def Con from 0.0195477 to 0.0195477
Heightened Def Con from 0.0195477 to 0.0195477
Heightened Def Con from 0.0195477 to 0.0195477
Heightened Def Con from 0.0195502 to 0.0195502
Heightened Def Con from 0.0195502 to 0.0195502
Heightened Def Con from 0.0195502 to 0.0195502
Heightened Def Con from 0.0195529 to 0.0195529
Heightened Def Con from 0.0195529 to 0.0195529
Heightened Def Con from 0.0195567 to 0.0195567
Heightened Def Con from 0.0195586 to 0.0195586
Heightened Def Con from 0.0195586 to 0.0195586
Heightened Def Con from 0.0195586 to 0.0195586
Heightened Def Con from 0.0195607 to 0.0195607
Heightened Def Con from 0.0195607 to 0.0195607
Heightened Def Con from 0.0195626 to 0.0195626
Heightened Def Con from 0.0195626 to 0.0195626
Heightened Def Con from 0.0195652 to 0.0195652
Heightened Def Con from 0.0195675 to 0.0195675
Heightened Def Con from 0.0195705 to 0.0195705
Heightened Def Con from 0.0195735 to 0.0195735
Heightened Def Con from 0.0195763 to 0.0195763
Heightened Def Con from 0.0195763 to 0.0195763
Heightened Def Con from 0.0195784 to 0.0195784
Heightened Def Con from 0.0195784 to 0.0195784
Heightened Def Con from 0.0195805 to 0.0195805
Heightened Def Con from 0.0195805 to 0.0195805
Heightened Def Con from 0.0195825 to 0.0195825
Heightened Def Con from 0.0195842 to 0.0195842
Heightened Def Con from 0.0195874 to 0.0195874
Heightened Def Con from 0.01959 to 0.01959
Heightened Def Con from 0.01959 to 0.01959
Heightened Def Con from 0.0195922 to 0.0195922
Heightened Def Con from 0.0195952 to 0.0195952
Heightened Def Con from 0.0195952 to 0.0195952
Heightened Def Con from 0.0195997 to 0.0195997
Heightened Def Con from 0.0196041 to 0.0196041
Heightened Def Con from 0.0196072 to 0.0196072
Heightened Def Con from 0.0196111 to 0.0196111
Heightened Def Con from 0.0196159 to 0.0196159
Heightened Def Con from 0.0196159 to 0.0196159
Heightened Def Con from 0.0196159 to 0.0196159
Heightened Def Con from 0.0196208 to 0.0196208
Heightened Def Con from 0.0196208 to 0.0196208
Heightened Def Con from 0.0196208 to 0.0196208
Heightened Def Con from 0.0196258 to 0.0196258
Heightened Def Con from 0.0196333 to 0.0196333
Heightened Def Con from 0.0196396 to 0.0196396
Heightened Def Con from 0.0196465 to 0.0196465
Heightened Def Con from 0.0196562 to 0.0196562
Heightened Def Con from 0.0196633 to 0.0196633
Heightened Def Con from 0.0196711 to 0.0196711
Heightened Def Con from 0.019679 to 0.019679
Heightened Def Con from 0.0196867 to 0.0196867
Heightened Def Con from 0.019694 to 0.019694
Heightened Def Con from 0.0197024 to 0.0197024
Heightened Def Con from 0.0197103 to 0.0197103
Heightened Def Con from 0.0197183 to 0.0197183
Heightened Def Con from 0.0197274 to 0.0197274
Heightened Def Con from 0.0197392 to 0.0197392
Heightened Def Con from 0.0197467 to 0.0197467
Heightened Def Con from 0.0197467 to 0.0197467
Heightened Def Con from 0.0197574 to 0.0197574
Heightened Def Con from 0.0197698 to 0.0197698
Heightened Def Con from 0.0197919 to 0.0197919
Heightened Def Con from 0.0198384 to 0.0198384
Heightened Def Con from 0.0209274 to 0.0209274
Heightened Def Con from 0.0209418 to 0.0209418
Heightened Def Con from 0.020955 to 0.020955
Heightened Def Con from 0.020965 to 0.020965
Heightened Def Con from 0.020976 to 0.020976
Heightened Def Con from 0.0209863 to 0.0209863
Heightened Def Con from 0.0209949 to 0.0209949
Heightened Def Con from 0.0209949 to 0.0209949
Heightened Def Con from 0.0210065 to 0.0210065
Heightened Def Con from 0.0210159 to 0.0210159
Heightened Def Con from 0.0210274 to 0.0210274
Heightened Def Con from 0.0210392 to 0.0210392
Heightened Def Con from 0.021052 to 0.021052
Heightened Def Con from 0.0210706 to 0.0210706
Heightened Def Con from 0.0210922 to 0.0210922
Heightened Def Con from 0.0210922 to 0.0210922
Heightened Def Con from 0.0211089 to 0.0211089
Heightened Def Con from 0.0211206 to 0.0211206
Heightened Def Con from 0.0211351 to 0.0211351
Heightened Def Con from 0.0211351 to 0.0211351
Heightened Def Con from 0.0211484 to 0.0211484
Heightened Def Con from 0.0211484 to 0.0211484
Heightened Def Con from 0.0211635 to 0.0211635
Heightened Def Con from 0.0211774 to 0.0211774
Heightened Def Con from 0.0211774 to 0.0211774
Heightened Def Con from 0.0211866 to 0.0211866
Heightened Def Con from 0.0212012 to 0.0212013
Heightened Def Con from 0.0212161 to 0.0212161
Heightened Def Con from 0.0212161 to 0.0212161
Heightened Def Con from 0.0212161 to 0.0212161
Heightened Def Con from 0.0212297 to 0.0212297
Heightened Def Con from 0.0212428 to 0.0212428
Heightened Def Con from 0.0212557 to 0.0212557
Heightened Def Con from 0.0212557 to 0.0212557
Heightened Def Con from 0.0212666 to 0.0212666
Heightened Def Con from 0.0212746 to 0.0212746
Heightened Def Con from 0.0212845 to 0.0212845
Heightened Def Con from 0.0212845 to 0.0212845
Heightened Def Con from 0.0212918 to 0.0212918
Heightened Def Con from 0.0212918 to 0.0212918
Heightened Def Con from 0.0212918 to 0.0212918
[...]
Heightened Def Con from 0.0480851 to 0.0480851
Heightened Def Con from 0.0480851 to 0.0480851
Heightened Def Con from 0.0480871 to 0.0480871
Heightened Def Con from 0.0480901 to 0.0480901
Heightened Def Con from 0.0480901 to 0.0480901
Heightened Def Con from 0.0480926 to 0.0480926
Heightened Def Con from 0.0480953 to 0.0480953
Heightened Def Con from 0.048098 to 0.048098
Heightened Def Con from 0.0481012 to 0.0481012
Heightened Def Con from 0.0481057 to 0.0481057
Heightened Def Con from 0.0481057 to 0.0481057
Heightened Def Con from 0.0481081 to 0.0481081
Heightened Def Con from 0.04811 to 0.04811
Heightened Def Con from 0.04811 to 0.04811
Heightened Def Con from 0.0481126 to 0.0481126
Heightened Def Con from 0.0481126 to 0.0481126
Heightened Def Con from 0.048115 to 0.048115
Heightened Def Con from 0.0481167 to 0.0481167
Heightened Def Con from 0.0481167 to 0.0481167
Heightened Def Con from 0.048119 to 0.048119
Heightened Def Con from 0.048119 to 0.048119
Heightened Def Con from 0.048119 to 0.048119
Heightened Def Con from 0.048121 to 0.048121
Heightened Def Con from 0.048121 to 0.048121
Heightened Def Con from 0.0481231 to 0.0481231
Heightened Def Con from 0.0481262 to 0.0481262
Heightened Def Con from 0.0481262 to 0.0481262
Heightened Def Con from 0.0481289 to 0.0481289
Heightened Def Con from 0.0481289 to 0.0481289
Heightened Def Con from 0.0481313 to 0.0481313
Heightened Def Con from 0.0481313 to 0.0481314
Heightened Def Con from 0.0481348 to 0.0481348
Heightened Def Con from 0.0481378 to 0.0481378
Heightened Def Con from 0.0481408 to 0.0481408
Heightened Def Con from 0.0481408 to 0.0481408
Heightened Def Con from 0.048144 to 0.048144
Heightened Def Con from 0.048144 to 0.048144
Heightened Def Con from 0.0481475 to 0.0481475
Heightened Def Con from 0.0481475 to 0.0481475
Heightened Def Con from 0.0481475 to 0.0481475
Heightened Def Con from 0.0481498 to 0.0481498
Heightened Def Con from 0.0481498 to 0.0481498
Heightened Def Con from 0.0481498 to 0.0481498
Heightened Def Con from 0.048153 to 0.048153
Heightened Def Con from 0.048153 to 0.048153
Heightened Def Con from 0.048156 to 0.048156
Heightened Def Con from 0.0481587 to 0.0481587
Heightened Def Con from 0.0481618 to 0.0481618
Heightened Def Con from 0.0481656 to 0.0481656
Heightened Def Con from 0.0481705 to 0.0481706
Heightened Def Con from 0.0481753 to 0.0481753
Heightened Def Con from 0.0481791 to 0.0481791
Heightened Def Con from 0.0481822 to 0.0481822
Heightened Def Con from 0.0481877 to 0.0481877
Heightened Def Con from 0.0481921 to 0.0481921
Heightened Def Con from 0.0481961 to 0.0481961
Heightened Def Con from 0.0481993 to 0.0481993
Heightened Def Con from 0.0482025 to 0.0482025
Heightened Def Con from 0.0482072 to 0.0482072
Heightened Def Con from 0.0482111 to 0.0482111
Heightened Def Con from 0.0482142 to 0.0482142
Heightened Def Con from 0.0482173 to 0.0482173
Heightened Def Con from 0.0482203 to 0.0482203
Heightened Def Con from 0.048224 to 0.048224
Heightened Def Con from 0.0482273 to 0.0482273
Heightened Def Con from 0.0482305 to 0.0482305
Heightened Def Con from 0.0482339 to 0.0482339
Heightened Def Con from 0.0482374 to 0.0482374
Heightened Def Con from 0.0482418 to 0.0482418
Heightened Def Con from 0.0482454 to 0.0482454
Heightened Def Con from 0.0482489 to 0.0482489
Heightened Def Con from 0.0482536 to 0.0482536
Heightened Def Con from 0.0482566 to 0.0482566
Heightened Def Con from 0.0482595 to 0.0482595
Heightened Def Con from 0.0482624 to 0.0482625
Heightened Def Con from 0.0482664 to 0.0482664
Heightened Def Con from 0.0482704 to 0.0482704
Heightened Def Con from 0.0482733 to 0.0482733
Heightened Def Con from 0.0482763 to 0.0482763
Heightened Def Con from 0.0482793 to 0.0482793
Heightened Def Con from 0.0482841 to 0.0482841
Heightened Def Con from 0.0482875 to 0.0482875
Heightened Def Con from 0.048291 to 0.048291
Heightened Def Con from 0.0482962 to 0.0482962
Heightened Def Con from 0.0483006 to 0.0483006
Heightened Def Con from 0.0483046 to 0.0483046
Heightened Def Con from 0.0483076 to 0.0483076
Heightened Def Con from 0.0483116 to 0.0483116
Heightened Def Con from 0.0483146 to 0.0483146
Heightened Def Con from 0.0483186 to 0.0483186
Heightened Def Con from 0.0483225 to 0.0483225
Heightened Def Con from 0.0483274 to 0.0483274
Heightened Def Con from 0.0483274 to 0.0483274
Heightened Def Con from 0.0483304 to 0.0483304
Heightened Def Con from 0.0483336 to 0.0483336
Heightened Def Con from 0.0483382 to 0.0483382
Heightened Def Con from 0.0483421 to 0.0483421
Heightened Def Con from 0.0483466 to 0.0483466
Heightened Def Con from 0.0483506 to 0.0483506
Heightened Def Con from 0.0483506 to 0.0483506
Heightened Def Con from 0.0483556 to 0.0483556
Heightened Def Con from 0.0483586 to 0.0483586
Heightened Def Con from 0.0483636 to 0.0483636
Heightened Def Con from 0.0483666 to 0.0483666
Heightened Def Con from 0.0483695 to 0.0483695
Heightened Def Con from 0.0483734 to 0.0483734
Heightened Def Con from 0.0483764 to 0.0483764
Heightened Def Con from 0.0483806 to 0.0483806
Heightened Def Con from 0.0483846 to 0.0483846
Heightened Def Con from 0.0483902 to 0.0483903
Heightened Def Con from 0.0483956 to 0.0483956
Heightened Def Con from 0.0484015 to 0.0484016
Heightened Def Con from 0.0484056 to 0.0484056
Heightened Def Con from 0.0484096 to 0.0484096
Heightened Def Con from 0.0484096 to 0.0484096
Heightened Def Con from 0.0484165 to 0.0484165
Heightened Def Con from 0.0484225 to 0.0484225
Heightened Def Con from 0.0484312 to 0.0484312
Heightened Def Con from 0.0484394 to 0.0484394
Heightened Def Con from 0.0484484 to 0.0484484
Heightened Def Con from 0.0484584 to 0.0484584
Heightened Def Con from 0.0484661 to 0.0484661
Heightened Def Con from 0.0484759 to 0.0484759
Heightened Def Con from 0.0484842 to 0.0484842
Heightened Def Con from 0.0484922 to 0.0484922
Heightened Def Con from 0.0485031 to 0.0485031
Heightened Def Con from 0.048511 to 0.048511
Heightened Def Con from 0.0485179 to 0.0485179
Heightened Def Con from 0.048527 to 0.048527
Heightened Def Con from 0.0485358 to 0.0485358
Heightened Def Con from 0.0485418 to 0.0485418
Heightened Def Con from 0.0485527 to 0.0485527
Heightened Def Con from 0.0485596 to 0.0485596
Heightened Def Con from 0.0485695 to 0.0485695
Heightened Def Con from 0.0485764 to 0.0485764
Heightened Def Con from 0.0485833 to 0.0485833
Heightened Def Con from 0.0485892 to 0.0485893
Heightened Def Con from 0.0485953 to 0.0485953
Heightened Def Con from 0.0486061 to 0.0486061
Heightened Def Con from 0.0486061 to 0.0486061
Heightened Def Con from 0.048615 to 0.048615
Heightened Def Con from 0.0486219 to 0.0486219
Heightened Def Con from 0.0486288 to 0.0486288
Heightened Def Con from 0.0486357 to 0.0486357
Heightened Def Con from 0.0486416 to 0.0486416
Heightened Def Con from 0.0486466 to 0.0486466
Heightened Def Con from 0.0486544 to 0.0486544
Heightened Def Con from 0.0486544 to 0.0486544
Heightened Def Con from 0.0486544 to 0.0486544
Heightened Def Con from 0.0486544 to 0.0486544
Heightened Def Con from 0.0486594 to 0.0486594
Heightened Def Con from 0.0486594 to 0.0486594
Heightened Def Con from 0.0486594 to 0.0486594
Heightened Def Con from 0.0486594 to 0.0486594
Heightened Def Con from 0.0486594 to 0.0486594
Heightened Def Con from 0.0486594 to 0.0486594
Heightened Def Con from 0.0486662 to 0.0486662
Heightened Def Con from 0.0486662 to 0.0486662
Heightened Def Con from 0.0486662 to 0.0486662
Heightened Def Con from 0.0486662 to 0.0486663
Heightened Def Con from 0.0486731 to 0.0486731
Heightened Def Con from 0.0486731 to 0.0486731
Heightened Def Con from 0.0486731 to 0.0486731
Heightened Def Con from 0.0486731 to 0.0486731
Heightened Def Con from 0.0486792 to 0.0486792
Heightened Def Con from 0.0486849 to 0.0486849
Heightened Def Con from 0.0486904 to 0.0486904
Heightened Def Con from 0.0486904 to 0.0486904
Heightened Def Con from 0.0486904 to 0.0486904
Heightened Def Con from 0.0486904 to 0.0486904
Heightened Def Con from 0.0486958 to 0.0486958
Heightened Def Con from 0.0486958 to 0.0486958
Heightened Def Con from 0.0486958 to 0.0486958
Heightened Def Con from 0.048699 to 0.048699
Heightened Def Con from 0.0487073 to 0.0487073
Heightened Def Con from 0.0487073 to 0.0487074
Heightened Def Con from 0.0487074 to 0.0487074
Heightened Def Con from 0.0487133 to 0.0487133
Heightened Def Con from 0.048724 to 0.048724
Heightened Def Con from 0.048724 to 0.048724
Heightened Def Con from 0.0487429 to 0.0487429
Heightened Def Con from 0.0488126 to 0.0488126
Heightened Def Con from 0.0488545 to 0.0488545
Heightened Def Con from 0.0488704 to 0.0488704
Heightened Def Con from 0.0488819 to 0.0488819
Heightened Def Con from 0.0488947 to 0.0488947
Heightened Def Con from 0.0489048 to 0.0489048
Heightened Def Con from 0.0489164 to 0.0489164
Heightened Def Con from 0.0489263 to 0.0489263
Heightened Def Con from 0.0489371 to 0.0489371
Heightened Def Con from 0.048948 to 0.048948
Heightened Def Con from 0.048948 to 0.048948
Heightened Def Con from 0.0489595 to 0.0489595
Heightened Def Con from 0.0489659 to 0.0489659
Heightened Def Con from 0.0489759 to 0.0489759
Heightened Def Con from 0.0489886 to 0.0489886
Heightened Def Con from 0.0489999 to 0.0489999
Heightened Def Con from 0.0490098 to 0.0490098
Heightened Def Con from 0.0490179 to 0.0490179
Heightened Def Con from 0.0490299 to 0.0490299
Heightened Def Con from 0.0490299 to 0.0490299
Heightened Def Con from 0.0490409 to 0.0490409
Heightened Def Con from 0.0490511 to 0.0490511
Heightened Def Con from 0.0490601 to 0.0490601
Heightened Def Con from 0.0490711 to 0.0490711
Heightened Def Con from 0.0490802 to 0.0490802
Heightened Def Con from 0.0490943 to 0.0490943
Heightened Def Con from 0.0491053 to 0.0491053
Heightened Def Con from 0.0491134 to 0.0491134
Heightened Def Con from 0.0491225 to 0.0491225
Heightened Def Con from 0.0491325 to 0.0491325
Heightened Def Con from 0.0491415 to 0.0491415
Heightened Def Con from 0.0491494 to 0.0491494
Heightened Def Con from 0.0491556 to 0.0491556
Heightened Def Con from 0.0491606 to 0.0491606
Heightened Def Con from 0.0491659 to 0.0491659
Heightened Def Con from 0.0491724 to 0.0491724
Heightened Def Con from 0.0491766 to 0.0491766
Heightened Def Con from 0.0491806 to 0.0491806
Heightened Def Con from 0.0491847 to 0.0491847
Heightened Def Con from 0.0491877 to 0.0491877
Heightened Def Con from 0.0491907 to 0.0491907
Heightened Def Con from 0.0491937 to 0.0491937
Heightened Def Con from 0.0491977 to 0.0491977
Heightened Def Con from 0.0492024 to 0.0492024
Heightened Def Con from 0.0492057 to 0.0492057
Heightened Def Con from 0.0492087 to 0.0492087
Heightened Def Con from 0.0492117 to 0.0492117
Heightened Def Con from 0.0492157 to 0.0492157
Heightened Def Con from 0.0492207 to 0.0492208
Heightened Def Con from 0.0492247 to 0.0492247
Heightened Def Con from 0.0492277 to 0.0492277
Heightened Def Con from 0.0492309 to 0.0492309
Heightened Def Con from 0.0492309 to 0.0492309
Heightened Def Con from 0.0492309 to 0.0492309
Heightened Def Con from 0.0492347 to 0.0492347
Heightened Def Con from 0.0492347 to 0.0492347
Heightened Def Con from 0.0492377 to 0.0492377
Heightened Def Con from 0.0492377 to 0.0492377
Heightened Def Con from 0.0492377 to 0.0492377
Heightened Def Con from 0.0492407 to 0.0492407
Heightened Def Con from 0.0492407 to 0.0492407
Heightened Def Con from 0.0492407 to 0.0492407
Heightened Def Con from 0.0492437 to 0.0492437
Heightened Def Con from 0.0492437 to 0.0492437
Heightened Def Con from 0.0492437 to 0.0492437
Heightened Def Con from 0.0492467 to 0.0492467
Heightened Def Con from 0.0492467 to 0.0492467
Heightened Def Con from 0.0492467 to 0.0492467
Heightened Def Con from 0.0492467 to 0.0492467
Heightened Def Con from 0.0492467 to 0.0492467
Heightened Def Con from 0.0492495 to 0.0492495
Heightened Def Con from 0.0492495 to 0.0492495
Heightened Def Con from 0.0492517 to 0.0492517
Heightened Def Con from 0.0492517 to 0.0492517
Heightened Def Con from 0.0492546 to 0.0492546
Heightened Def Con from 0.0492567 to 0.0492567
Heightened Def Con from 0.0492567 to 0.0492567
Heightened Def Con from 0.0492567 to 0.0492567
Heightened Def Con from 0.0492596 to 0.0492596
Heightened Def Con from 0.0492617 to 0.0492617
Heightened Def Con from 0.0492617 to 0.0492617
Heightened Def Con from 0.0492617 to 0.0492617
Heightened Def Con from 0.0492617 to 0.0492617
Heightened Def Con from 0.0492617 to 0.0492617
Heightened Def Con from 0.0492617 to 0.0492617
Heightened Def Con from 0.0492646 to 0.0492646
Heightened Def Con from 0.0492646 to 0.0492646
Heightened Def Con from 0.0492674 to 0.0492674
Heightened Def Con from 0.0492674 to 0.0492674
Heightened Def Con from 0.0492714 to 0.0492714
Heightened Def Con from 0.0492739 to 0.0492739
Heightened Def Con from 0.0492739 to 0.0492739
Heightened Def Con from 0.0492772 to 0.0492772
Heightened Def Con from 0.0492772 to 0.0492772
Heightened Def Con from 0.0492804 to 0.0492804
Heightened Def Con from 0.0492804 to 0.0492804
Heightened Def Con from 0.0492804 to 0.0492804
Heightened Def Con from 0.0492816 to 0.0492816
Heightened Def Con from 0.0492874 to 0.0492874
Heightened Def Con from 0.0492905 to 0.0492905
Heightened Def Con from 0.0492935 to 0.0492935
Heightened Def Con from 0.0492966 to 0.0492966
Heightened Def Con from 0.0492995 to 0.0492995
Heightened Def Con from 0.0492995 to 0.0492995
Heightened Def Con from 0.0493025 to 0.0493025
Heightened Def Con from 0.0493073 to 0.0493073
Heightened Def Con from 0.0493113 to 0.0493113
Heightened Def Con from 0.0493113 to 0.0493113
Heightened Def Con from 0.0493113 to 0.0493113
Heightened Def Con from 0.0493136 to 0.0493136
Heightened Def Con from 0.0493136 to 0.0493136
Heightened Def Con from 0.0493159 to 0.0493159
Heightened Def Con from 0.0493159 to 0.0493159
Heightened Def Con from 0.0493159 to 0.0493159
Heightened Def Con from 0.0493184 to 0.0493184
Heightened Def Con from 0.0493213 to 0.0493213
Heightened Def Con from 0.0493243 to 0.0493243
Heightened Def Con from 0.0493271 to 0.0493271
Heightened Def Con from 0.0493293 to 0.0493294
Heightened Def Con from 0.0493333 to 0.0493333
Heightened Def Con from 0.0493373 to 0.0493373
Heightened Def Con from 0.0493404 to 0.0493404
Heightened Def Con from 0.0493452 to 0.0493452
Heightened Def Con from 0.0493482 to 0.0493482
Heightened Def Con from 0.0493512 to 0.0493512
Heightened Def Con from 0.0493552 to 0.0493552
Heightened Def Con from 0.0493591 to 0.0493591
Heightened Def Con from 0.0493621 to 0.0493621
Heightened Def Con from 0.0493656 to 0.0493656
Heightened Def Con from 0.0493685 to 0.0493685
Heightened Def Con from 0.0493715 to 0.0493715
Heightened Def Con from 0.0493768 to 0.0493768
Heightened Def Con from 0.0493809 to 0.0493809
Heightened Def Con from 0.0493809 to 0.0493809
Heightened Def Con from 0.0493845 to 0.0493845
Heightened Def Con from 0.0493878 to 0.0493878
Heightened Def Con from 0.0493915 to 0.0493915
Heightened Def Con from 0.0493956 to 0.0493956
Heightened Def Con from 0.0493996 to 0.0493996
Heightened Def Con from 0.0494026 to 0.0494026
Heightened Def Con from 0.0494056 to 0.0494056
Heightened Def Con from 0.0494096 to 0.0494096
Heightened Def Con from 0.0494136 to 0.0494136
Heightened Def Con from 0.0494167 to 0.0494167
Heightened Def Con from 0.0494202 to 0.0494203
Heightened Def Con from 0.0494244 to 0.0494244
Heightened Def Con from 0.0494277 to 0.0494277
Heightened Def Con from 0.0494313 to 0.0494313
Heightened Def Con from 0.0494343 to 0.0494343
Heightened Def Con from 0.0494392 to 0.0494392
Heightened Def Con from 0.0494441 to 0.0494441
Heightened Def Con from 0.0494488 to 0.0494488
Heightened Def Con from 0.049452 to 0.049452
Heightened Def Con from 0.0494569 to 0.0494569
Heightened Def Con from 0.0494609 to 0.0494609
Heightened Def Con from 0.0494648 to 0.0494648
Heightened Def Con from 0.0494698 to 0.0494698
Heightened Def Con from 0.0494727 to 0.0494727
Heightened Def Con from 0.0494757 to 0.0494757
Heightened Def Con from 0.0494786 to 0.0494786
Heightened Def Con from 0.0494816 to 0.0494816
Heightened Def Con from 0.0494858 to 0.0494859
Heightened Def Con from 0.0494894 to 0.0494894
Heightened Def Con from 0.0494934 to 0.0494934
Heightened Def Con from 0.0494993 to 0.0494993
Heightened Def Con from 0.0495029 to 0.0495029
Heightened Def Con from 0.0495059 to 0.0495059
Heightened Def Con from 0.0495109 to 0.0495109
Heightened Def Con from 0.049514 to 0.049514
Heightened Def Con from 0.0495169 to 0.0495169
Heightened Def Con from 0.0495227 to 0.0495227
Heightened Def Con from 0.0495258 to 0.0495258
Heightened Def Con from 0.0495289 to 0.0495289
Heightened Def Con from 0.0495336 to 0.0495336
Heightened Def Con from 0.0495369 to 0.0495369
Heightened Def Con from 0.0495415 to 0.0495415
Heightened Def Con from 0.0495454 to 0.0495454
Heightened Def Con from 0.0495503 to 0.0495503
Heightened Def Con from 0.0495549 to 0.0495549
Heightened Def Con from 0.0495589 to 0.0495589
Heightened Def Con from 0.0495628 to 0.0495628
Heightened Def Con from 0.0495678 to 0.0495678
Heightened Def Con from 0.0495678 to 0.0495678
Heightened Def Con from 0.0495718 to 0.0495718
Heightened Def Con from 0.0495758 to 0.0495758
Heightened Def Con from 0.0495798 to 0.0495798
Heightened Def Con from 0.0495847 to 0.0495847
Heightened Def Con from 0.049591 to 0.049591
Heightened Def Con from 0.0495977 to 0.0495977
Heightened Def Con from 0.0496037 to 0.0496037
Heightened Def Con from 0.0496096 to 0.0496096
Heightened Def Con from 0.0496166 to 0.0496166
Heightened Def Con from 0.0496248 to 0.0496248
Heightened Def Con from 0.0496325 to 0.0496325
Heightened Def Con from 0.0496415 to 0.0496415
Heightened Def Con from 0.0496504 to 0.0496504
Heightened Def Con from 0.0496586 to 0.0496586
Heightened Def Con from 0.0496693 to 0.0496693
Heightened Def Con from 0.0496793 to 0.0496793
Heightened Def Con from 0.0496881 to 0.0496881
Heightened Def Con from 0.049698 to 0.049698
Heightened Def Con from 0.049705 to 0.049705
Heightened Def Con from 0.0497119 to 0.0497119
Heightened Def Con from 0.0497188 to 0.0497188
Heightened Def Con from 0.0497267 to 0.0497267
Heightened Def Con from 0.0497357 to 0.0497357
Heightened Def Con from 0.0497416 to 0.0497416
Heightened Def Con from 0.0497476 to 0.0497476
Heightened Def Con from 0.0497544 to 0.0497544
Heightened Def Con from 0.0497604 to 0.0497604
Heightened Def Con from 0.0497673 to 0.0497673
Heightened Def Con from 0.0497762 to 0.0497762
Heightened Def Con from 0.0497831 to 0.0497831
Heightened Def Con from 0.04979 to 0.04979
Heightened Def Con from 0.049796 to 0.049796
Heightened Def Con from 0.0498019 to 0.0498019
Heightened Def Con from 0.0498078 to 0.0498078
Heightened Def Con from 0.0498127 to 0.0498127
Heightened Def Con from 0.0498127 to 0.0498127
Heightened Def Con from 0.0498127 to 0.0498127
Heightened Def Con from 0.0498127 to 0.0498127
Heightened Def Con from 0.0498127 to 0.0498127
Heightened Def Con from 0.0498127 to 0.0498127
Heightened Def Con from 0.0498127 to 0.0498127
Heightened Def Con from 0.0498127 to 0.0498127
Heightened Def Con from 0.0498127 to 0.0498127
Heightened Def Con from 0.0498127 to 0.0498127
Heightened Def Con from 0.0498176 to 0.0498176
Heightened Def Con from 0.0498226 to 0.0498226
Heightened Def Con from 0.0498226 to 0.0498226
Heightened Def Con from 0.0498226 to 0.0498226
Heightened Def Con from 0.0498226 to 0.0498226
Heightened Def Con from 0.0498226 to 0.0498226
Heightened Def Con from 0.0498226 to 0.0498226
Heightened Def Con from 0.0498314 to 0.0498314
Heightened Def Con from 0.0498383 to 0.0498383
Heightened Def Con from 0.0498434 to 0.0498434
Heightened Def Con from 0.0498434 to 0.0498434
Heightened Def Con from 0.0498434 to 0.0498434
Heightened Def Con from 0.0498543 to 0.0498543
Heightened Def Con from 0.0498543 to 0.0498543
Heightened Def Con from 0.0498603 to 0.0498603
Heightened Def Con from 0.0498639 to 0.0498639
Heightened Def Con from 0.0498748 to 0.0498748
Heightened Def Con from 0.0498815 to 0.0498815
Total elapsed time: 217.450 seconds.

